<?xml version='1.0' encoding='UTF-8'?>
<!-- generated on 2025-03-25 15:41:00.699017 by ipykernel_launcher.py UNKNOWN
  options: -f C:\Users\scc\AppData\Roaming\jupyter\runtime\kernel-423bb882-3c41-4988-9698-4d5479eaa569.json
-->
<routes xmlns:xsi="http://www.w3.org/2001/XMLSchema-instance" xsi:noNamespaceSchemaLocation="http://sumo.dlr.de/xsd/routes_file.xsd">
    <vType id="bus" vClass="bus"/>
    <route id="101_9633" color="240,215,34" edges="671403224#1 329967776#0 497898320#1 4424794#3 42104627#1 42104627#2 42104627#3 329967778#0 329967778#1 329967780#1 482223508#0 4540284#2 182604676#1 24654535#1 137501593#0 137501593#1 -689406334#2 -689406332#0 -4400974 -136814134#2 -659119234#1 -168896326#0 -24619225#1 -24619225#0 24619227#1 24619223 610848023#0 610847999#1 4490162 37036260#0 37036260#5 37036260#6 148670266#0 112442380#1 112442376 112442386 112442096 112442378#0 112442378#5 112442434#0 112442432 4490380#0 4491644#1 4413756#1 -572108462#2 -593476355#3 -593476355#2 -4413754#2 -4413754#1 -4413754#0 4413753#0 25199263#1 25204788#0 84793975#1 108911227 37499145#5 4370506#1 4370506#2 4535227#1 4535225#0 4535225#4 4535225#5 4535225#9 4675431#2 332875218#1 85127867#0 85127867#1 85127867#2 837553910#0 837553910#1 108886196#0 606178178#0 25199729#0 25199729#2 25199729#3 25199729#4 25199729#5 25199729#7 284421836 4586202#1 4405254#1 150684001#0 158184091#1 158184091#2 158184091#3 158184091#4 311904862#0 4475955#1 -25199872#15 -25199872#14 -25199872#13 -25199872#12 -25199872#11 -25199872#6 -25199872#5 -25199872#4 -25199872#3 -25199872#2 25199874#0 148670270#1 148670270#2 405884013 25199875#0 25199875#3 25199875#4 4439811#0 4439811#1 4439811#3 387454341#0 30243829#0 30243829#1 30243829#2 30243829#3 30243829#5 831660642 329984187#0 -501432100 467184791#2 68568103 535575648#2 112408882#0 112408882#1 112408882#2 112408882#4 112408882#6 112408882#8 112408882#9 112408882#10 112408882#11 -246049143#2 -246049143#1 -246049143#0 -157044919 -140336718#1 -140336718#0">
        <stop busStop="agg_9633_0_9633_1" duration="20.0" until="20.0" parking="true"/><!-- Berlin, Turmstr./Lübecker Str. -->
        <stop busStop="agg_9633_2_9863_13_11518_20_12000_1" duration="20.0" until="80.0" parking="true"/><!-- U Turmstr. (Berlin) -->
        <stop busStop="agg_9633_3_9863_14_11518_21" duration="20.0" until="200.0" parking="true"/><!-- Rathaus Tiergarten (Berlin) -->
        <stop busStop="9633_4" duration="20.0" until="380.0" parking="true"/><!-- Turmstr./Waldstr. (Berlin) -->
        <stop busStop="agg_9633_5_9661_10_11978_10" duration="20.0" until="500.0" parking="true"/><!-- Alt-Moabit/Gotzkowskystr. (Berlin) -->
        <stop busStop="9633_6" duration="20.0" until="560.0" parking="true"/><!-- Franklinstr. (Berlin) -->
        <stop busStop="9633_7" duration="20.0" until="680.0" parking="true"/><!-- Helmholtzstr. (Berlin) -->
        <stop busStop="9633_8" duration="20.0" until="740.0" parking="true"/><!-- Guerickestr. (Berlin) -->
        <stop busStop="9633_9" duration="20.0" until="860.0" parking="true"/><!-- Otto-Suhr-Allee/Leibnizstr. (Berlin) -->
        <stop busStop="9633_10" duration="20.0" until="980.0" parking="true"/><!-- Bismarckstr./Leibnizstr. (Berlin) -->
        <stop busStop="9633_11" duration="20.0" until="1040.0" parking="true"/><!-- Berlin, Goethestr. -->
        <stop busStop="9633_12" duration="20.0" until="1160.0" parking="true"/><!-- Berlin, Kantstr./Leibnizstr. -->
        <stop busStop="9633_13" duration="20.0" until="1280.0" parking="true"/><!-- Mommsenstr. (Berlin) -->
        <stop busStop="9633_14" duration="20.0" until="1400.0" parking="true"/><!-- Olivaer Platz (Berlin) -->
        <stop busStop="9633_15" duration="20.0" until="1460.0" parking="true"/><!-- Düsseldorfer Str. (Berlin) -->
        <stop busStop="9633_16" duration="20.0" until="1580.0" parking="true"/><!-- U Konstanzer Str. (Berlin) -->
        <stop busStop="agg_9633_17_12786_12" duration="20.0" until="1700.0" parking="true"/><!-- U Fehrbelliner Platz (Berlin) -->
        <stop busStop="9633_18" duration="20.0" until="1820.0" parking="true"/><!-- U Blissestr. (Berlin) -->
        <stop busStop="9633_19" duration="20.0" until="1880.0" parking="true"/><!-- Berlin, Am Volkspark -->
        <stop busStop="9633_20" duration="20.0" until="1940.0" parking="true"/><!-- Birger-Forell-Platz (Berlin) -->
        <stop busStop="9633_21" duration="20.0" until="2000.0" parking="true"/><!-- Detmolder Str./Blissestr. (Berlin) -->
        <stop busStop="agg_9633_22_11856_11" duration="20.0" until="2060.0" parking="true"/><!-- Hanauer Str. (Berlin) -->
        <stop busStop="agg_9633_23_11856_12" duration="20.0" until="2120.0" parking="true"/><!-- Deidesheimer Str. (Berlin) -->
        <stop busStop="agg_9633_24_10802_35_11856_13" duration="20.0" until="2240.0" parking="true"/><!-- Wiesbadener Str./Laubacher Str. (Berlin) -->
        <stop busStop="agg_9633_25_10802_36_11856_14" duration="20.0" until="2300.0" parking="true"/><!-- Laubenheimer Str. (Berlin) -->
        <stop busStop="agg_9633_26_10802_37_11856_15" duration="20.0" until="2360.0" parking="true"/><!-- U Breitenbachplatz (Berlin) -->
        <stop busStop="agg_9633_27_11856_16" duration="20.0" until="2420.0" parking="true"/><!-- Schorlemerallee (Berlin) -->
        <stop busStop="agg_9633_28_11856_17" duration="20.0" until="2480.0" parking="true"/><!-- Rohlfsstr. (Berlin) -->
        <stop busStop="9633_29" duration="20.0" until="2540.0" parking="true"/><!-- Königin-Luise-Platz/Botanischer Garten (Berlin) -->
        <stop busStop="9633_30" duration="20.0" until="2600.0" parking="true"/><!-- Limonenstr. (Berlin) -->
        <stop busStop="9633_31" duration="20.0" until="2660.0" parking="true"/><!-- Altensteinstr./Fabeckstr. (Berlin) -->
        <stop busStop="9633_32" duration="20.0" until="2720.0" parking="true"/><!-- Reichensteiner Weg (Berlin) -->
        <stop busStop="agg_9633_33_11683_28" duration="20.0" until="2780.0" parking="true"/><!-- Unter den Eichen/Drakestr. (Berlin) -->
        <stop busStop="agg_9633_34_11683_29" duration="20.0" until="2840.0" parking="true"/><!-- Von-Laue-Str. (Berlin) -->
        <stop busStop="agg_9633_35_11683_30" duration="20.0" until="2900.0" parking="true"/><!-- Thielallee/Dahlemer Weg (Berlin) -->
        <stop busStop="agg_9633_36_11683_31" duration="20.0" until="2960.0" parking="true"/><!-- Holländische Mühle (Berlin) -->
        <stop busStop="agg_9633_37_12434_28_11683_32" duration="20.0" until="3020.0" parking="true"/><!-- Winfriedstr. (Berlin) -->
        <stop busStop="agg_9633_38_11683_33" duration="20.0" until="3080.0" parking="true"/><!-- Kleinaustr. (Berlin) -->
        <stop busStop="agg_9633_39_12119_1_11946_34_9777_22_9750_11_10980_9" duration="20.0" until="3200.0" parking="true"/><!-- Berlin, Zehlendorf Eiche -->
        <stop busStop="agg_9633_40_12119_2_11946_35_9777_23_9750_12_10980_10" duration="20.0" until="3320.0" parking="true"/><!-- S Zehlendorf (Berlin) -->
        <stop busStop="agg_9633_41_11946_36" duration="20.0" until="3380.0" parking="true"/><!-- Machnower Str./Berlepschstr. (Berlin) -->
        <stop busStop="agg_9633_42_11946_37" duration="20.0" until="3440.0" parking="true"/><!-- Schrockstr. (Berlin) -->
        <stop busStop="agg_9633_43_11946_38" duration="20.0" until="3500.0" parking="true"/><!-- Behring-Krankenhaus (Berlin) -->
        <stop busStop="agg_9633_44_11946_39" duration="20.0" until="3560.0" parking="true"/><!-- Gutzmannstr. (Berlin) -->
        <stop busStop="agg_9633_45_11946_40" duration="20.0" until="3680.0" parking="true"/><!-- Ludwigsfelder Str./Sachtlebenstr. (Berlin) -->
        <stop busStop="agg_9633_46_11946_41" duration="20.0" until="3740.0" parking="true"/><!-- Nieritzweg (Berlin) -->
        <stop busStop="agg_9633_47_11946_42" duration="20.0" until="3800.0" parking="true"/><!-- Windsteiner Weg (Berlin) -->
        <stop busStop="agg_9633_48_11946_43_11949_0_9646_0" duration="20.0" until="3860.0" parking="true"/><!-- Sachtlebenstr. (Berlin) -->
    </route>
    <route id="101_9646" color="240,215,34" edges="-140336718#0 4729907#2 318434639#0 42721601 109694466#1 -109694466#1 -42721601 -318434639#0 -4729907#2 149522550#2 140336718#1 140336718#2 246049143#0 246049143#1 246049143#2 -112408882#11 -112408882#10 -112408882#9 -112408882#8 -112408882#6 -112408882#4 -112408882#2 -112408882#1 -112408882#0 -28950614 -61450606#0 -37609023#0 5364049#2 149843723#1 329984188 831660641#0 831660641#2 831660641#3 831660641#4 831660641#5 30243828#0 30243828#1 30243828#2 387454340#0 4484277#0 4484277#3 713482805 4484276 405884014#0 148670264#1 25199872#2 25199872#3 25199872#4 25199872#5 25199872#6 25199872#11 25199872#12 25199872#13 25199872#14 25199872#15 4475954#0 437152241#1 149992022#0 149992022#1 149992022#2 149992022#3 149992022#4 25199732#1 4405253#0 4586201#0 150682836#1 284421835#0 284421835#2 284421835#3 284421835#4 284421835#5 284421835#6 606178177#0 -108886196#1 -837553910#1 -837553910#0 -85127867#2 -85127867#1 -85127867#0 -332875218#1 -332875218#0 -4535225#9 -4535225#5 -4535225#4 -4535225#0 4535228#0 4535228#1 749896509#1 4407115#1 4407115#2 4389663#1 4389663#3 112408880#1 205505802#1 112408885#1 112408885#2 25204787#1 25199270#1 4413754#0 4413754#1 4413754#2 593476355#2 593476355#3 572108462#2 4413755#0 4491643#0 4490379#1 -112442432 112442433#1 -112442378#5 -112442378#0 112427849 112442412 -32909626 4490164#0 112442381#1 -37036260#6 -37036260#5 -37036260#0 -747453201 610848010#0 428660082#1 -610848017 4402675#0 531179970 24619225#1 168896326#0 659119234#1 136814134#2 136814134#3 689406332#0 689406334#2 25184203#0 25184203#1 25184203#2 -24678549#0 28497111#0 -4540284#2 482223507#1 692480564#0 692480563#0 25199401#1 692480562#0 461910873#1 461910877#1 310164489#0 30276434#1">
        <stop busStop="agg_9633_48_11946_43_11949_0_9646_0" duration="20.0" until="20.0" parking="true"/><!-- Sachtlebenstr. (Berlin) -->
        <stop busStop="agg_11949_1_9646_1" duration="20.0" until="80.0" parking="true"/><!-- Sachtlebenstr. (Berlin) -->
        <stop busStop="agg_11949_2_9646_2" duration="20.0" until="140.0" parking="true"/><!-- Windsteiner Weg (Berlin) -->
        <stop busStop="agg_11949_3_9646_3" duration="20.0" until="200.0" parking="true"/><!-- Nieritzweg (Berlin) -->
        <stop busStop="agg_11949_4_9646_4" duration="20.0" until="320.0" parking="true"/><!-- Ludwigsfelder Str./Sachtlebenstr. (Berlin) -->
        <stop busStop="agg_11949_5_9646_5" duration="20.0" until="380.0" parking="true"/><!-- Gutzmannstr. (Berlin) -->
        <stop busStop="agg_11949_6_9646_6" duration="20.0" until="440.0" parking="true"/><!-- Behring-Krankenhaus (Berlin) -->
        <stop busStop="agg_11949_7_9646_7" duration="20.0" until="500.0" parking="true"/><!-- Schrockstr. (Berlin) -->
        <stop busStop="agg_11949_8_9646_8" duration="20.0" until="560.0" parking="true"/><!-- Machnower Str./Berlepschstr. (Berlin) -->
        <stop busStop="agg_11949_9_9773_8_9646_9" duration="20.0" until="740.0" parking="true"/><!-- S Zehlendorf (Berlin) -->
        <stop busStop="agg_9754_26_12117_39_10994_27_11949_10_9793_2_9773_9_9646_10" duration="20.0" until="800.0" parking="true"/><!-- Berlin, Zehlendorf Eiche -->
        <stop busStop="agg_11679_4_9646_11" duration="20.0" until="920.0" parking="true"/><!-- Kleinaustr. (Berlin) -->
        <stop busStop="agg_11679_5_12422_7_9646_12" duration="20.0" until="980.0" parking="true"/><!-- Winfriedstr. (Berlin) -->
        <stop busStop="agg_11679_6_9646_13" duration="20.0" until="1040.0" parking="true"/><!-- Holländische Mühle (Berlin) -->
        <stop busStop="agg_11679_7_9646_14" duration="20.0" until="1100.0" parking="true"/><!-- Thielallee/Dahlemer Weg (Berlin) -->
        <stop busStop="agg_11679_8_9646_15" duration="20.0" until="1220.0" parking="true"/><!-- Von-Laue-Str. (Berlin) -->
        <stop busStop="agg_11407_57_9646_16" duration="20.0" until="1280.0" parking="true"/><!-- Unter den Eichen/Drakestr. (Berlin) -->
        <stop busStop="9646_17" duration="20.0" until="1340.0" parking="true"/><!-- Reichensteiner Weg (Berlin) -->
        <stop busStop="9646_18" duration="20.0" until="1400.0" parking="true"/><!-- Altensteinstr./Fabeckstr. (Berlin) -->
        <stop busStop="9646_19" duration="20.0" until="1460.0" parking="true"/><!-- Limonenstr. (Berlin) -->
        <stop busStop="agg_11857_15_9646_20" duration="20.0" until="1520.0" parking="true"/><!-- Königin-Luise-Platz/Botanischer Garten (Berlin) -->
        <stop busStop="agg_11857_16_9646_21" duration="20.0" until="1580.0" parking="true"/><!-- Rohlfsstr. (Berlin) -->
        <stop busStop="agg_11857_17_9646_22" duration="20.0" until="1640.0" parking="true"/><!-- Schorlemerallee (Berlin) -->
        <stop busStop="agg_11857_18_9646_23" duration="20.0" until="1700.0" parking="true"/><!-- U Breitenbachplatz (Berlin) -->
        <stop busStop="agg_11857_19_9646_24" duration="20.0" until="1760.0" parking="true"/><!-- Laubenheimer Str. (Berlin) -->
        <stop busStop="agg_11857_20_9646_25" duration="20.0" until="1820.0" parking="true"/><!-- Wiesbadener Str./Laubacher Str. (Berlin) -->
        <stop busStop="agg_11857_21_9646_26" duration="20.0" until="1940.0" parking="true"/><!-- Deidesheimer Str. (Berlin) -->
        <stop busStop="agg_11857_22_9646_27" duration="20.0" until="2000.0" parking="true"/><!-- Hanauer Str. (Berlin) -->
        <stop busStop="9646_28" duration="20.0" until="2060.0" parking="true"/><!-- Detmolder Str./Blissestr. (Berlin) -->
        <stop busStop="9646_29" duration="20.0" until="2120.0" parking="true"/><!-- Birger-Forell-Platz (Berlin) -->
        <stop busStop="agg_9646_30_12605_19" duration="20.0" until="2180.0" parking="true"/><!-- Berlin, Am Volkspark -->
        <stop busStop="agg_9646_31_12605_20" duration="20.0" until="2240.0" parking="true"/><!-- U Blissestr. (Berlin) -->
        <stop busStop="agg_12751_16_12788_5_9646_32" duration="20.0" until="2420.0" parking="true"/><!-- U Fehrbelliner Platz (Berlin) -->
        <stop busStop="9646_33" duration="20.0" until="2480.0" parking="true"/><!-- U Konstanzer Str. (Berlin) -->
        <stop busStop="9646_34" duration="20.0" until="2540.0" parking="true"/><!-- Düsseldorfer Str. (Berlin) -->
        <stop busStop="9646_35" duration="20.0" until="2660.0" parking="true"/><!-- Olivaer Platz/Xantener Str. (Berlin) -->
        <stop busStop="9646_36" duration="20.0" until="2720.0" parking="true"/><!-- Olivaer Platz (Berlin) -->
        <stop busStop="9646_37" duration="20.0" until="2840.0" parking="true"/><!-- Mommsenstr. (Berlin) -->
        <stop busStop="9646_38" duration="20.0" until="2960.0" parking="true"/><!-- Berlin, Kantstr./Leibnizstr. -->
        <stop busStop="9646_39" duration="20.0" until="3020.0" parking="true"/><!-- Berlin, Goethestr. -->
        <stop busStop="9646_40" duration="20.0" until="3140.0" parking="true"/><!-- Bismarckstr./Leibnizstr. (Berlin) -->
        <stop busStop="9646_41" duration="20.0" until="3200.0" parking="true"/><!-- Otto-Suhr-Allee/Leibnizstr. (Berlin) -->
        <stop busStop="9646_42" duration="20.0" until="3260.0" parking="true"/><!-- Guerickestr. (Berlin) -->
        <stop busStop="agg_10740_8_9646_43" duration="20.0" until="3320.0" parking="true"/><!-- Helmholtzstr. (Berlin) -->
        <stop busStop="agg_10740_9_9646_44" duration="20.0" until="3440.0" parking="true"/><!-- Franklinstr. (Berlin) -->
        <stop busStop="agg_11979_13_9669_26_9646_45" duration="20.0" until="3560.0" parking="true"/><!-- Alt-Moabit/Gotzkowskystr. (Berlin) -->
        <stop busStop="9646_46" duration="20.0" until="3680.0" parking="true"/><!-- Turmstr./Waldstr. (Berlin) -->
        <stop busStop="agg_9873_37_9646_47_11523_9" duration="20.0" until="3800.0" parking="true"/><!-- Rathaus Tiergarten (Berlin) -->
        <stop busStop="agg_9873_38_10498_1_9646_48_11523_10" duration="20.0" until="3920.0" parking="true"/><!-- U Turmstr. (Berlin) -->
        <stop busStop="9646_49" duration="20.0" until="3980.0" parking="true"/><!-- Berlin, Turmstr./Lübecker Str. -->
    </route>
    <route id="109_9722" color="240,215,34" edges="914393586 886344278 868398543#0 868398543#1 868401254 MA053 MA052 46066760 1200832501 868399799 134217608 134217607 906193178 868407850 4537641 4413385#1 28658009-AddedOnRampEdge 28658009 35584650 183593895#0 32196975#1 32028472 31783590#0 31783590#1 58535206 241770480#0 241770479 4484042#0 442725348#1 442725348#3 4484043 136814977#1 437325053#1 437325053#2 437325052#0 25219768#1 25219768#2 -4495193#1 -4495193#0 -4446701#1 -4446701#0 -24837129 -4446702 302429255 265637901 302429259#0 4436920#1 4436920#2 459346123#1 459346122#0 459346122#2 459346122#3 459346122#7 724621035#1 724621035#5 724621035#9 327805902#0 28658324#1 28658326#1 191543831#4 26474542#0 26474542#1 26474544#1 150928418#1 490345043 490345041 490345042#0 490347872#1 490347869 490347868 490347867 4402681 490347866 490351864 490351863#0 490351862#1 490351860#0 490351849#0 490351848#0 490351847#1 490351846 490351845 32880567#0 31007688#1 37540946#1 142629240#1 317922820 173219934 4517104">
        <stop busStop="agg_9722_0_9722_1" duration="20.0" until="20.0" parking="true"/><!-- Urban Tech Republic (Berlin) -->
        <stop busStop="9722_2" duration="20.0" until="80.0" parking="true"/><!-- General-Ganeval-Brücke (Berlin) -->
        <stop busStop="agg_11514_28_9873_19_9722_3" duration="20.0" until="260.0" parking="true"/><!-- Berlin, Weltlingerbrücke -->
        <stop busStop="agg_11514_29_9873_20_9722_4_12462_12" duration="20.0" until="320.0" parking="true"/><!-- U Jakob-Kaiser-Platz (Berlin) -->
        <stop busStop="9722_5" duration="20.0" until="440.0" parking="true"/><!-- Tegeler Weg/S Jungfernheide (Berlin) -->
        <stop busStop="9722_6" duration="20.0" until="500.0" parking="true"/><!-- Osnabrücker Str. (Berlin) -->
        <stop busStop="9722_7" duration="20.0" until="560.0" parking="true"/><!-- Schlossbrücke (Berlin) -->
        <stop busStop="9722_8" duration="20.0" until="680.0" parking="true"/><!-- Luisenplatz/Schloss Charlottenburg (Berlin) -->
        <stop busStop="9722_9" duration="20.0" until="800.0" parking="true"/><!-- Haubachstr. (Berlin) -->
        <stop busStop="9722_10" duration="20.0" until="920.0" parking="true"/><!-- Bismarckstr./Kaiser-Friedrich-Str. (Berlin) -->
        <stop busStop="9722_11" duration="20.0" until="1040.0" parking="true"/><!-- Berlin, Kaiser-Friedrich-Str./Kantstr. -->
        <stop busStop="9722_12" duration="20.0" until="1100.0" parking="true"/><!-- S Charlottenburg/Gervinusstr. (Berlin) -->
        <stop busStop="agg_11949_37_9722_13_11467_9_9737_19_11530_12" duration="20.0" until="1220.0" parking="true"/><!-- U Adenauerplatz (Berlin) -->
        <stop busStop="agg_11949_38_9722_14_11467_10_9737_20_11530_13" duration="20.0" until="1340.0" parking="true"/><!-- Olivaer Platz (Berlin) -->
        <stop busStop="agg_11949_39_9722_15_11467_11_9737_21_11530_14" duration="20.0" until="1460.0" parking="true"/><!-- Berlin, Bleibtreustr. -->
        <stop busStop="agg_11949_40_9722_16_11467_12_9737_22_11530_15" duration="20.0" until="1520.0" parking="true"/><!-- U Uhlandstr. (Berlin) -->
        <stop busStop="agg_11949_41_11845_30_11833_20_9722_17_11978_21_9737_23_11943_11_11665_37" duration="20.0" until="1640.0" parking="true"/><!-- U Kurfürstendamm (Berlin) -->
        <stop busStop="agg_11643_40_11697_34_11949_42_10630_16_12477_31_11833_21_10808_21_9722_18_11978_22_9737_24_11665_38" duration="20.0" until="1760.0" parking="true"/><!-- S+U Zoologischer Garten Bhf (Berlin) -->
        <stop busStop="agg_11643_41_11697_35_10630_17_12477_32_10808_22_9722_19_11978_23_9737_25_11665_39" duration="20.0" until="1820.0" parking="true"/><!-- Hertzallee (Berlin) -->
    </route>
    <route id="109_9724" color="240,215,34" edges="-25418282 -392739719 -173219934 163385719 25038209 1168595963 344989747 688041804#1 24912337#0 37540945#1 490356863#0 4402682#1 4402682#2 4402682#5 4402682#8 4402682#13 32880568#0 32880568#1 32880568#2 141864327#2 446902669 153883893#0 4436888#1 26474543 607803347#0 26474541#0 26474541#2 4436919#1 327805901#0 327805903#1 327805903#5 327805903#9 168889126#1 168889126#2 168889126#6 168889126#9 168889126#13 168889126#14 302429245#0 4446697#1 4446702 24837129 4446701#0 4446701#1 4446635#2 4495193#1 4446636#0 4446636#1 4446636#5 4446636#6 593851930 25219772 4484045 4484044#0 4484044#2 4484044#3 4484044#4 85055165 172438234#0 58535210 4484026#0 4484026#1 4484026#2 463136253 463136254 31783584#0 31783558#1 28658023 28658023-AddedOffRampEdge 4484050 4484051 445536591 4537640 868407851 4540242#0 4540242#1 4540242#2 4540242#3 384414477#0 51772489 51773792 51773788 4606677 -1200832501 -4606676 -4606676.388 888131749#0 888131749#1 914393586">
        <stop busStop="agg_9627_0_9735_0_10804_0_11658_0_11946_0_11979_0_11838_17_11649_0_9724_0_10632_0_11941_14_10740_0_12482_0_11703_0" duration="20.0" until="20.0" parking="true"/><!-- Hertzallee (Berlin) -->
        <stop busStop="agg_9735_1_11946_1_9724_1" duration="20.0" until="200.0" parking="true"/><!-- S+U Zoologischer Garten Bhf (Berlin) -->
        <stop busStop="agg_9735_2_11538_31_11946_2_11475_13_9724_2" duration="20.0" until="380.0" parking="true"/><!-- U Kurfürstendamm (Berlin) -->
        <stop busStop="agg_9735_3_11538_32_11946_3_11475_14_9724_3" duration="20.0" until="440.0" parking="true"/><!-- U Uhlandstr. (Berlin) -->
        <stop busStop="agg_9735_4_11538_33_11946_4_11475_15_9724_4" duration="20.0" until="500.0" parking="true"/><!-- Berlin, Bleibtreustr. -->
        <stop busStop="agg_9735_5_11538_34_11946_5_11475_16_9724_5" duration="20.0" until="620.0" parking="true"/><!-- Olivaer Platz (Berlin) -->
        <stop busStop="agg_9724_6_12607_17" duration="20.0" until="680.0" parking="true"/><!-- U Adenauerplatz (Berlin) -->
        <stop busStop="agg_9724_7_12607_18" duration="20.0" until="800.0" parking="true"/><!-- S Charlottenburg/Gervinusstr. (Berlin) -->
        <stop busStop="9724_8" duration="20.0" until="920.0" parking="true"/><!-- Berlin, Kaiser-Friedrich-Str./Kantstr. -->
        <stop busStop="9724_9" duration="20.0" until="1040.0" parking="true"/><!-- Bismarckstr./Kaiser-Friedrich-Str. (Berlin) -->
        <stop busStop="9724_10" duration="20.0" until="1160.0" parking="true"/><!-- Haubachstr. (Berlin) -->
        <stop busStop="9724_11" duration="20.0" until="1340.0" parking="true"/><!-- Luisenplatz/Schloss Charlottenburg (Berlin) -->
        <stop busStop="9724_12" duration="20.0" until="1400.0" parking="true"/><!-- Schlossbrücke (Berlin) -->
        <stop busStop="9724_13" duration="20.0" until="1460.0" parking="true"/><!-- Osnabrücker Str. (Berlin) -->
        <stop busStop="agg_11518_31_9724_14" duration="20.0" until="1580.0" parking="true"/><!-- Tegeler Weg/S Jungfernheide (Berlin) -->
        <stop busStop="agg_9863_31_11516_3_9724_15_12464_3" duration="20.0" until="1700.0" parking="true"/><!-- U Jakob-Kaiser-Platz (Berlin) -->
        <stop busStop="agg_11516_4_9724_16" duration="20.0" until="1760.0" parking="true"/><!-- Berlin, Weltlingerbrücke -->
        <stop busStop="9724_17" duration="20.0" until="1880.0" parking="true"/><!-- General-Ganeval-Brücke (Berlin) -->
        <stop busStop="9724_18" duration="20.0" until="2000.0" parking="true"/><!-- Urban Tech Republic (Berlin) -->
    </route>
    <route id="110_9735" color="240,215,34" edges="-25418282 -392739719 -173219934 163385719 25038209 1168595963 344989747 688041804#1 24912337#0 37540945#1 490356863#0 4402682#1 4402682#2 4402682#5 4402682#8 4402682#13 32880568#0 32880568#1 32880568#2 141864327#2 446902669 153883893#0 4389665#1 4444427#0 4444427#1 4444427#3 4444427#4 84793972#0 -4531417#7 -4531417#6 -4531417#5 -4531417#0 -4575724#7 -4575724#6 -4575724#5 -4575724#4 -4575724#3 -4575724#2 -4575724#1 -4575724#0 532682871#1 47266668 47266662 137071143#0 137071143#1 4745687#0 4370509#2 4370509#3 4370509#4 4370509#6 4449422#0 4395628#1 28701156 -158579647#0 4395628#3 4395628#4 32843827 4520022#2 4520022#3 4520022#4 4520022#5 4520022#6 4520022#7 4700657#1 4700657#2 4700657#3 4700657#4 28427192#1 231960333#0 231960333#1 4402476#1 150796071#0 718428117#1">
        <stop busStop="agg_9627_0_9735_0_10804_0_11658_0_11946_0_11979_0_11838_17_11649_0_9724_0_10632_0_11941_14_10740_0_12482_0_11703_0" duration="20.0" until="20.0" parking="true"/><!-- Hertzallee (Berlin) -->
        <stop busStop="agg_9735_1_11946_1_9724_1" duration="20.0" until="140.0" parking="true"/><!-- S+U Zoologischer Garten Bhf (Berlin) -->
        <stop busStop="agg_9735_2_11538_31_11946_2_11475_13_9724_2" duration="20.0" until="320.0" parking="true"/><!-- U Kurfürstendamm (Berlin) -->
        <stop busStop="agg_9735_3_11538_32_11946_3_11475_14_9724_3" duration="20.0" until="380.0" parking="true"/><!-- U Uhlandstr. (Berlin) -->
        <stop busStop="agg_9735_4_11538_33_11946_4_11475_15_9724_4" duration="20.0" until="500.0" parking="true"/><!-- Berlin, Bleibtreustr. -->
        <stop busStop="agg_9735_5_11538_34_11946_5_11475_16_9724_5" duration="20.0" until="620.0" parking="true"/><!-- Olivaer Platz (Berlin) -->
        <stop busStop="agg_9735_6_12605_3" duration="20.0" until="740.0" parking="true"/><!-- U Adenauerplatz (Berlin) -->
        <stop busStop="agg_9735_7_12605_4" duration="20.0" until="860.0" parking="true"/><!-- Hochmeisterplatz (Berlin) -->
        <stop busStop="agg_9735_8_12605_5" duration="20.0" until="920.0" parking="true"/><!-- Seesener Str. (Berlin) -->
        <stop busStop="agg_9735_9_12605_6" duration="20.0" until="980.0" parking="true"/><!-- Martin-Luther-Krankenhaus (Berlin) -->
        <stop busStop="agg_9735_10_12605_7" duration="20.0" until="1040.0" parking="true"/><!-- Wangenheimstr. (Berlin) -->
        <stop busStop="agg_9735_11_11538_42_12605_8" duration="20.0" until="1100.0" parking="true"/><!-- Herthastr. (Berlin) -->
        <stop busStop="agg_9735_12_12605_9" duration="20.0" until="1160.0" parking="true"/><!-- Elgersburger Str. (Berlin) -->
        <stop busStop="agg_9735_13_11946_16_10808_3_12605_10" duration="20.0" until="1280.0" parking="true"/><!-- Elsterplatz (Berlin) -->
        <stop busStop="agg_9735_14_11946_17_10808_4_12605_11" duration="20.0" until="1340.0" parking="true"/><!-- Rathaus Schmargendorf (Berlin) -->
        <stop busStop="agg_9735_15_11946_18" duration="20.0" until="1400.0" parking="true"/><!-- Berlin, Berkaer Str./Breite Str. -->
        <stop busStop="agg_9735_16_11946_19" duration="20.0" until="1460.0" parking="true"/><!-- Platz am Wilden Eber (Berlin) -->
        <stop busStop="agg_9735_17_11946_20" duration="20.0" until="1520.0" parking="true"/><!-- Bernadottestr. (Berlin) -->
        <stop busStop="agg_9735_18_11946_21" duration="20.0" until="1580.0" parking="true"/><!-- Im Dol (Berlin) -->
        <stop busStop="agg_9735_19_11946_22" duration="20.0" until="1640.0" parking="true"/><!-- Drosselweg (Berlin) -->
        <stop busStop="agg_9735_20_11946_23" duration="20.0" until="1670.0" parking="true"/><!-- Domäne Dahlem (Berlin) -->
        <stop busStop="agg_9735_21_11856_22" duration="20.0" until="1730.0" parking="true"/><!-- Löhleinstr. (Berlin) -->
        <stop busStop="agg_9735_22_11856_23" duration="20.0" until="1790.0" parking="true"/><!-- U Freie Universität (Thielplatz) (Berlin) -->
        <stop busStop="agg_9735_23_11856_24" duration="20.0" until="1850.0" parking="true"/><!-- Bitscher Str. (Berlin) -->
        <stop busStop="agg_9735_24_10994_33_11856_25" duration="20.0" until="1910.0" parking="true"/><!-- U Oskar-Helene-Heim (Berlin) -->
        <stop busStop="9735_25" duration="20.0" until="1970.0" parking="true"/><!-- U Oskar-Helene-Heim (Berlin) -->
    </route>
    <route id="110_9737" color="240,215,34" edges="207716520 4402474#1 217112795#0 4316774#1 374339038#1 374339038#2 374339038#3 28427193 30124101#0 30124101#1 30124101#2 110149631#1 110149631#2 110149631#3 110149631#4 110149631#5 110149631#6 28427189#1 28427189#2 28427189#3 4368689#2 4368689#3 4368689#4 4449423#1 -4370509#7 -4370509#5 -4370509#3 -4370509#2 -4745687#0 -137071143#1 -137071143#0 -47266662 4368310 50056865#0-AddedOnRampEdge 50056865#0 4745691#2 4575724#1 4575724#2 4575724#3 4575724#4 4575724#5 4575724#6 4575724#7 4575724#8 4531417#5 4531417#6 4531417#7 4444428#1 4444428#2 4444428#3 4444428#4 4444428#6 28426845#0 150928418#1 490345043 490345041 490345042#0 490347872#1 490347869 490347868 490347867 4402681 490347866 490351864 490351863#0 490351862#1 490351860#0 490351849#0 490351848#0 490351847#1 490351846 490351845 32880567#0 31007688#1 37540946#1 142629240#1 317922820 173219934 4517104">
        <stop busStop="agg_9737_0_11857_8_9737_1" duration="20.0" until="20.0" parking="true"/><!-- U Oskar-Helene-Heim (Berlin) -->
        <stop busStop="agg_11857_9_9737_2" duration="20.0" until="140.0" parking="true"/><!-- Bitscher Str. (Berlin) -->
        <stop busStop="agg_11857_10_9737_3" duration="20.0" until="200.0" parking="true"/><!-- U Freie Universität (Thielplatz) (Berlin) -->
        <stop busStop="agg_11407_60_11857_11_9737_4" duration="20.0" until="260.0" parking="true"/><!-- Löhleinstr. (Berlin) -->
        <stop busStop="agg_11949_21_9737_5" duration="20.0" until="320.0" parking="true"/><!-- Domäne Dahlem (Berlin) -->
        <stop busStop="agg_11949_22_9737_6" duration="20.0" until="380.0" parking="true"/><!-- Drosselweg (Berlin) -->
        <stop busStop="agg_11949_23_9737_7" duration="20.0" until="440.0" parking="true"/><!-- Im Dol (Berlin) -->
        <stop busStop="agg_11949_24_9737_8" duration="20.0" until="470.0" parking="true"/><!-- Bernadottestr. (Berlin) -->
        <stop busStop="agg_11949_25_9737_9" duration="20.0" until="500.0" parking="true"/><!-- Platz am Wilden Eber (Berlin) -->
        <stop busStop="agg_11949_26_9737_10" duration="20.0" until="560.0" parking="true"/><!-- Berlin, Berkaer Str./Breite Str. -->