<?xml version='1.0' encoding='UTF-8'?>
<additional>
  <chargingStation id="cs_9735_25" name="U Oskar-Helene-Heim (Berlin) Charger" lane="718428117#1_0" startPos="111.80" endPos="124.80" power="150000" efficiency="0.95" chargeInTransit="false" friendlyPos="true"/>
  <chargingStation id="cs_10994_37" name="Waldfriedhof Dahlem (Berlin) Charger" lane="-469999029_0" startPos="53.51" endPos="66.51" power="150000" efficiency="0.95" chargeInTransit="false" friendlyPos="true"/>
  <chargingStation id="cs_11407_0" name="S Schöneweide/Sterndamm (Berlin) Charger" lane="-MA068_0" startPos="24.39" endPos="37.39" power="150000" efficiency="0.95" chargeInTransit="false" friendlyPos="true"/>
  <chargingStation id="cs_11407_61" name="U Dahlem-Dorf (Berlin) Charger" lane="23109073#1_0" startPos="71.12" endPos="84.12" power="150000" efficiency="0.95" chargeInTransit="false" friendlyPos="true"/>
  <chargingStation id="cs_11658_39" name="U Britz-Süd (Berlin) Charger" lane="-31002335#0_0" startPos="344.76" endPos="357.76" power="150000" efficiency="0.95" chargeInTransit="false" friendlyPos="true"/>
  <chargingStation id="cs_11800_21" name="Waldsassener Str. (Berlin) Charger" lane="451621867#1_0" startPos="44.27" endPos="57.27" power="150000" efficiency="0.95" chargeInTransit="false" friendlyPos="true"/>
  <chargingStation id="cs_12751_0" name="Planetarium (Berlin) Charger" lane="151043332#5_0" startPos="512.39" endPos="525.39" power="150000" efficiency="0.95" chargeInTransit="false" friendlyPos="true"/>
  <chargingStation id="cs_10661_32" name="Pfaueninsel (Berlin) Charger" lane="-259536422_0" startPos="0.00" endPos="6.74" power="150000" efficiency="0.95" chargeInTransit="false" friendlyPos="true"/>
  <chargingStation id="cs_10948_29" name="Dardanellenweg (Berlin) Charger" lane="-469999015_0" startPos="55.81" endPos="68.81" power="150000" efficiency="0.95" chargeInTransit="false" friendlyPos="true"/>
  <chargingStation id="cs_11804_0" name="Waldsassener Str. (Berlin) Charger" lane="-451621866_0" startPos="53.25" endPos="66.25" power="150000" efficiency="0.95" chargeInTransit="false" friendlyPos="true"/>
  <chargingStation id="cs_10789_0" name="S Nordbahnhof/Gartenstr. (Berlin) Charger" lane="-169719061#2_0" startPos="30.90" endPos="43.90" power="150000" efficiency="0.95" chargeInTransit="false" friendlyPos="true"/>
  <chargingStation id="cs_9873_50" name="S+U Berlin Hauptbahnhof Charger" lane="4389557#1_0" startPos="94.78" endPos="107.78" power="150000" efficiency="0.95" chargeInTransit="false" friendlyPos="true"/>
  <chargingStation id="cs_12422_0" name="U Krumme Lanke (Berlin) Charger" lane="385969248#1_0" startPos="0.00" endPos="13.00" power="150000" efficiency="0.95" chargeInTransit="false" friendlyPos="true"/>
  <chargingStation id="cs_10663_0" name="Pfaueninsel (Berlin) Charger" lane="-259536415_0" startPos="0.00" endPos="13.00" power="150000" efficiency="0.95" chargeInTransit="false" friendlyPos="true"/>
  <chargingStation id="cs_9724_18" name="Urban Tech Republic (Berlin) Charger" lane="914393586_0" startPos="4.16" endPos="17.16" power="150000" efficiency="0.95" chargeInTransit="false" friendlyPos="true"/>
  <chargingStation id="cs_10785_23" name="S Nordbahnhof/Gartenstr. (Berlin) Charger" lane="-165465028#0_0" startPos="66.89" endPos="79.89" power="150000" efficiency="0.95" chargeInTransit="false" friendlyPos="true"/>
  <chargingStation id="cs_10498_0" name="U Turmstr. (Berlin) Charger" lane="461910873#1_0" startPos="54.06" endPos="67.06" power="150000" efficiency="0.95" chargeInTransit="false" friendlyPos="true"/>
  <chargingStation id="cs_9646_49" name="Berlin, Turmstr./Lübecker Str. Charger" lane="30276434#1_0" startPos="55.98" endPos="68.98" power="150000" efficiency="0.95" chargeInTransit="false" friendlyPos="true"/>
  <chargingStation id="cs_agg_9627_0_9735_0_10804_0_11658_0_11946_0_11979_0_11838_17_11649_0_9724_0_10632_0_11941_14_10740_0_12482_0_11703_0" name="Hertzallee (Berlin) Charger" lane="-25418282_0" startPos="72.89" endPos="114.89" power="150000" efficiency="0.95" chargeInTransit="false" friendlyPos="true"/>
  <chargingStation id="cs_agg_9633_0_9633_1" name="Berlin, Turmstr./Lübecker Str. Charger" lane="671403224#1_0" startPos="0.00" endPos="26.00" power="150000" efficiency="0.95" chargeInTransit="false" friendlyPos="true"/>
  <chargingStation id="cs_agg_9633_48_11946_43_11949_0_9646_0" name="Sachtlebenstr. (Berlin) Charger" lane="-140336718#0_0" startPos="10.34" endPos="52.34" power="150000" efficiency="0.95" chargeInTransit="false" friendlyPos="true"/>
  <chargingStation id="cs_agg_9828_0_12475_0" name="Wilhelmsruher Damm (Berlin) Charger" lane="451458155_0" startPos="0.00" endPos="13.00" power="150000" efficiency="0.95" chargeInTransit="false" friendlyPos="true"/>
  <chargingStation id="cs_agg_11516_32_11970_0_12041_8_11921_0" name="Wilhelmsruher Damm (Berlin) Charger" lane="451458155_0" startPos="107.90" endPos="149.90" power="150000" efficiency="0.95" chargeInTransit="false" friendlyPos="true"/>
  <chargingStation id="cs_agg_9828_4_11970_4_10691_33_9844_29" name="Märkische Zeile (Berlin) Charger" lane="4802807#2_0" startPos="116.57" endPos="158.57" power="150000" efficiency="0.95" chargeInTransit="false" friendlyPos="true"/>
  <chargingStation id="cs_agg_9828_20_11060_9_11065_0_11957_27" name="U Paracelsus-Bad (Berlin) Charger" lane="4594894#4_0" startPos="7.74" endPos="49.74" power="150000" efficiency="0.95" chargeInTransit="false" friendlyPos="true"/>
  <chargingStation id="cs_agg_9828_32_10099_29_10103_28_10109_0_10789_24_11082_0_10785_0_10691_0_11085_17_10094_0_10683_32_9836_0" name="U Leopoldplatz (Berlin) Charger" lane="375861848_0" startPos="0.00" endPos="17.13" power="150000" efficiency="0.95" chargeInTransit="false" friendlyPos="true"/>
  <chargingStation id="cs_agg_9863_0_9863_1" name="S+U Berlin Hauptbahnhof Charger" lane="111251392_0" startPos="0.00" endPos="13.00" power="150000" efficiency="0.95" chargeInTransit="false" friendlyPos="true"/>
  <chargingStation id="cs_agg_9863_50_11969_8" name="Mäckeritzwiesen (Berlin) Charger" lane="-333626093_0" startPos="88.30" endPos="116.30" power="150000" efficiency="0.95" chargeInTransit="false" friendlyPos="true"/>
  <chargingStation id="cs_agg_9897_0_9973_34_9889_51_9963_0" name="Berlin, Alt-Heiligensee Charger" lane="24735700_0" startPos="38.86" endPos="80.86" power="150000" efficiency="0.95" chargeInTransit="false" friendlyPos="true"/>
  <chargingStation id="cs_agg_11514_0_12043_0" name="Wilhelmsruher Damm (Berlin) Charger" lane="-420483060#0_0" startPos="0.00" endPos="13.00" power="150000" efficiency="0.95" chargeInTransit="false" friendlyPos="true"/>
  <chargingStation id="cs_agg_12472_23_9836_31_9897_34_11923_50_11973_33_12043_1_9852_20" name="Wilhelmsruher Damm (Berlin) Charger" lane="-420483060#0_0" startPos="143.21" endPos="185.21" power="150000" efficiency="0.95" chargeInTransit="false" friendlyPos="true"/>
  <chargingStation id="cs_agg_10142_44_10136_0_9897_50_9889_0" name="Berlin, Aubertstr. Charger" lane="42813669_0" startPos="568.16" endPos="610.16" power="150000" efficiency="0.95" chargeInTransit="false" friendlyPos="true"/>
  <chargingStation id="cs_agg_10045_25_11089_9_12475_23" name="Berlin, Galenstr. Charger" lane="450086133_0" startPos="0.00" endPos="15.94" power="150000" efficiency="0.95" chargeInTransit="false" friendlyPos="true"/>
  <chargingStation id="cs_agg_10740_22_10099_15" name="Robert-Koch-Platz (Berlin) Charger" lane="-671403217_0" startPos="51.67" endPos="79.67" power="150000" efficiency="0.95" chargeInTransit="false" friendlyPos="true"/>
  <chargingStation id="cs_agg_10115_0_9908_0_12037_0_9922_53_10818_33_10120_37_12038_12_9929_11_9931_0" name="U Osloer Str. (Berlin) Charger" lane="456213456_0" startPos="51.95" endPos="93.95" power="150000" efficiency="0.95" chargeInTransit="false" friendlyPos="true"/>
  <chargingStation id="cs_agg_10115_37_10115_38_10189_36_10189_37" name="S Buch (Berlin) [Am Sandhaus] Charger" lane="-98410013#3_0" startPos="2.49" endPos="44.49" power="150000" efficiency="0.95" chargeInTransit="false" friendlyPos="true"/>
  <chargingStation id="cs_agg_10258_1_10221_30_10312_0_10312_1_12434_0_12422_35_10315_28_10882_1" name="S Schöneweide/Sterndamm (Berlin) Charger" lane="MA080_0" startPos="7.31" endPos="49.31" power="150000" efficiency="0.95" chargeInTransit="false" friendlyPos="true"/>
  <chargingStation id="cs_agg_10385_45_10395_0_11755_32_11759_0" name="S Lichtenrade (Berlin) Charger" lane="-858123638#0_0" startPos="24.40" endPos="66.40" power="150000" efficiency="0.95" chargeInTransit="false" friendlyPos="true"/>
  <chargingStation id="cs_agg_10437_0_11755_0_12113_0_10437_1_11755_1_12113_1_11941_24" name="U Walther-Schreiber-Platz (Berlin) Charger" lane="30143978#1_0" startPos="68.44" endPos="110.44" power="150000" efficiency="0.95" chargeInTransit="false" friendlyPos="true"/>
  <chargingStation id="cs_agg_10437_17_10498_41" name="Halbauer Weg (Berlin) Charger" lane="461910870#2_0" startPos="33.54" endPos="61.54" power="150000" efficiency="0.95" chargeInTransit="false" friendlyPos="true"/>
  <chargingStation id="cs_agg_11665_0_10437_34_11665_1" name="U Britz-Süd (Berlin) Charger" lane="138515677#4_0" startPos="291.45" endPos="333.45" power="150000" efficiency="0.95" chargeInTransit="false" friendlyPos="true"/>
  <chargingStation id="cs_agg_10444_40_11759_32_12115_49" name="U Walther-Schreiber-Platz (Berlin) Charger" lane="4463221#1_0" startPos="66.59" endPos="108.59" power="150000" efficiency="0.95" chargeInTransit="false" friendlyPos="true"/>
  <chargingStation id="cs_agg_10804_21_10804_22_11538_46_11538_47_10481_5" name="Roseneck (Berlin) Charger" lane="4486596#2_0" startPos="34.28" endPos="76.28" power="150000" efficiency="0.95" chargeInTransit="false" friendlyPos="true"/>
  <chargingStation id="cs_agg_10994_0_10980_36" name="S+U Rathaus Steglitz (Berlin) Charger" lane="30157292#1_0" startPos="8.71" endPos="36.71" power="150000" efficiency="0.95" chargeInTransit="false" friendlyPos="true"/>
  <chargingStation id="cs_agg_10994_1_12123_0_10959_25_10336_34_10329_0_10956_0" name="S+U Rathaus Steglitz (Berlin) Charger" lane="469999020_0" startPos="0.00" endPos="41.02" power="150000" efficiency="0.95" chargeInTransit="false" friendlyPos="true"/>
  <chargingStation id="cs_agg_11518_32_11523_0" name="S+U Jungfernheide Bhf (Berlin) Charger" lane="806903754_0" startPos="205.12" endPos="233.12" power="150000" efficiency="0.95" chargeInTransit="false" friendlyPos="true"/>
  <chargingStation id="cs_agg_11514_32_11516_0_12464_0_12462_15_11516_1_12464_1" name="Goerdelersteg (Berlin) Charger" lane="-857983579_0" startPos="145.48" endPos="187.48" power="150000" efficiency="0.95" chargeInTransit="false" friendlyPos="true"/>
  <chargingStation id="cs_agg_11516_10_9908_16_10691_9_11882_34_12464_4_9929_0_9844_1_9931_11" name="U Kurt-Schumacher-Platz (Berlin) Charger" lane="27606891#2_0" startPos="0.00" endPos="33.92" power="150000" efficiency="0.95" chargeInTransit="false" friendlyPos="true"/>
  <chargingStation id="cs_agg_11538_0_11530_46" name="U Hermannplatz/Urbanstr. (Berlin) Charger" lane="385888165#4_0" startPos="328.95" endPos="356.95" power="150000" efficiency="0.95" chargeInTransit="false" friendlyPos="true"/>
  <chargingStation id="cs_agg_11643_41_11697_35_10630_17_12477_32_10808_22_9722_19_11978_23_9737_25_11665_39" name="Hertzallee (Berlin) Charger" lane="4517104_0" startPos="6.63" endPos="48.63" power="150000" efficiency="0.95" chargeInTransit="false" friendlyPos="true"/>
  <chargingStation id="cs_agg_10959_0_10956_24_12115_27_12434_14_11773_6_10959_1_11776_10_12113_22_12422_21" name="S Marienfelde (Berlin) Charger" lane="120395207#1_0" startPos="27.74" endPos="69.74" power="150000" efficiency="0.95" chargeInTransit="false" friendlyPos="true"/>
  <chargingStation id="cs_agg_10965_0_10970_27" name="S+U Rathaus Steglitz (Berlin) Charger" lane="30157290_0" startPos="7.34" endPos="35.34" power="150000" efficiency="0.95" chargeInTransit="false" friendlyPos="true"/>
  <chargingStation id="cs_agg_11800_0_11164_0_11804_22_11166_22" name="S+U Rathaus Steglitz (Berlin) Charger" lane="30157290_0" startPos="91.22" endPos="133.22" power="150000" efficiency="0.95" chargeInTransit="false" friendlyPos="true"/>
  <chargingStation id="cs_agg_9737_0_11857_8_9737_1" name="U Oskar-Helene-Heim (Berlin) Charger" lane="207716520_0" startPos="55.83" endPos="97.83" power="150000" efficiency="0.95" chargeInTransit="false" friendlyPos="true"/>
  <chargingStation id="cs_agg_11967_0_11967_1_11963_44_10695_33_10705_0_10705_1" name="Alt-Lübars (Berlin) Charger" lane="41976565_0" startPos="0.00" endPos="24.88" power="150000" efficiency="0.95" chargeInTransit="false" friendlyPos="true"/>
  <chargingStation id="cs_agg_11967_43_11963_0_10695_0_10705_33" name="Tegelort (Berlin) Charger" lane="39473294_0" startPos="223.66" endPos="265.66" power="150000" efficiency="0.95" chargeInTransit="false" friendlyPos="true"/>
  <chargingStation id="cs_agg_11973_30_9852_17_10683_0_9836_28" name="Märkische Zeile (Berlin) Charger" lane="-669433184_0" startPos="122.64" endPos="164.64" power="150000" efficiency="0.95" chargeInTransit="false" friendlyPos="true"/>
  <chargingStation id="cs_agg_12113_47_12561_34_12556_9" name="Nahariyastr. (Berlin) Charger" lane="-79701272#0_0" startPos="234.32" endPos="276.32" power="150000" efficiency="0.95" chargeInTransit="false" friendlyPos="true"/>
  <chargingStation id="cs_agg_12115_0_12558_0_12570_0" name="Nahariyastr. (Berlin) Charger" lane="30709383_0" startPos="0.00" endPos="13.00" power="150000" efficiency="0.95" chargeInTransit="false" friendlyPos="true"/>
  <chargingStation id="cs_agg_11039_11_11037_0_12607_19_12605_0_11037_1_12605_1_12497_20_12499_0_12499_1" name="U Wilmersdorfer Str./S Charlottenburg (Berlin) Charger" lane="25369033#2_0" startPos="161.72" endPos="203.72" power="150000" efficiency="0.95" chargeInTransit="false" friendlyPos="true"/>
  <chargingStation id="cs_agg_12570_35_12561_0" name="Königin-Luise-Str./Clayallee (Berlin) Charger" lane="139806486#2_0" startPos="387.01" endPos="415.01" power="150000" efficiency="0.95" chargeInTransit="false" friendlyPos="true"/>
  <chargingStation id="cs_agg_12751_33_12751_34_11845_43" name="Brixplatz (Berlin) Charger" lane="332306828#3_0" startPos="79.62" endPos="121.62" power="150000" efficiency="0.95" chargeInTransit="false" friendlyPos="true"/>
  <chargingStation id="cs_agg_12788_0_12763_0_12771_36" name="U Berliner Str. (Berlin) Charger" lane="4442099#1_0" startPos="36.42" endPos="78.42" power="150000" efficiency="0.95" chargeInTransit="false" friendlyPos="true"/>
  <chargingStation id="cs_agg_10661_0_10064_29_10663_31_10066_0" name="S Messe Nord/ICC (Berlin) Charger" lane="4616321#2_0" startPos="4.77" endPos="46.77" power="150000" efficiency="0.95" chargeInTransit="false" friendlyPos="true"/>
  <chargingStation id="cs_agg_9908_53_9922_0" name="S Frohnau (Berlin) Charger" lane="231262268#0_0" startPos="0.00" endPos="26.29" power="150000" efficiency="0.95" chargeInTransit="false" friendlyPos="true"/>
  <chargingStation id="cs_agg_12434_34_12434_35" name="U Krumme Lanke (Berlin) Charger" lane="4392634#2_0" startPos="337.72" endPos="365.72" power="150000" efficiency="0.95" chargeInTransit="false" friendlyPos="true"/>
  <chargingStation id="cs_agg_11804_21_10538_19_11166_21_10970_26_10537_0_10538_20" name="S+U Rathaus Steglitz (Berlin) Charger" lane="30157285_0" startPos="28.39" endPos="70.39" power="150000" efficiency="0.95" chargeInTransit="false" friendlyPos="true"/>
  <chargingStation id="cs_agg_10537_16_10538_0" name="Berlin, Appenzeller Str. Charger" lane="24160797_0" startPos="102.51" endPos="130.51" power="150000" efficiency="0.95" chargeInTransit="false" friendlyPos="true"/>
  <chargingStation id="cs_agg_10948_0_10802_38" name="Dillenburger Str. (Berlin) Charger" lane="30699893_0" startPos="37.50" endPos="65.50" power="150000" efficiency="0.95" chargeInTransit="false" friendlyPos="true"/>
  <chargingStation id="cs_agg_11880_0_10675_0_11986_0" name="Berlin, An der Mühle Charger" lane="MA047_0" startPos="0.00" endPos="13.00" power="150000" efficiency="0.95" chargeInTransit="false" friendlyPos="true"/>
  <chargingStation id="cs_agg_11968_0_9873_0" name="Mäckeritzwiesen (Berlin) Charger" lane="-58534538_0" startPos="0.00" endPos="24.25" power="150000" efficiency="0.95" chargeInTransit="false" friendlyPos="true"/>
  <chargingStation id="cs_agg_10675_37_10671_0_11957_0_11962_49_10671_1_11957_1" name="Hainbuchenstr. (Berlin) Charger" lane="-39496182#0_0" startPos="12.34" endPos="54.34" power="150000" efficiency="0.95" chargeInTransit="false" friendlyPos="true"/>
  <chargingStation id="cs_agg_11679_0_11683_37_11679_1" name="Busseallee (Berlin) Charger" lane="256245721_0" startPos="89.53" endPos="131.53" power="150000" efficiency="0.95" chargeInTransit="false" friendlyPos="true"/>
  <chargingStation id="cs_agg_11679_36_11683_0" name="U Mohrenstr. (Berlin) Charger" lane="710761406_0" startPos="84.00" endPos="112.00" power="150000" efficiency="0.95" chargeInTransit="false" friendlyPos="true"/>
  <chargingStation id="cs_agg_10671_36_11882_47_11989_25" name="Berlin, An der Mühle Charger" lane="MA046_0" startPos="11.30" endPos="53.30" power="150000" efficiency="0.95" chargeInTransit="false" friendlyPos="true"/>
  <chargingStation id="cs_agg_11518_0_11838_49_11845_0_11523_30" name="Hadlichstr. (Berlin) Charger" lane="243102981_0" startPos="0.00" endPos="13.00" power="150000" efficiency="0.95" chargeInTransit="false" friendlyPos="true"/>
  <chargingStation id="cs_agg_9777_0_9773_29" name="Mansfelder Str./Barstr. (Berlin) Charger" lane="4368690_0" startPos="134.43" endPos="162.43" power="150000" efficiency="0.95" chargeInTransit="false" friendlyPos="true"/>
  <chargingStation id="cs_agg_9777_31_9773_0" name="Berlin, Neuruppiner Str. Charger" lane="23044566_0" startPos="5.31" endPos="33.31" power="150000" efficiency="0.95" chargeInTransit="false" friendlyPos="true"/>
  <chargingStation id="cs_agg_11060_0_11067_23" name="U Paracelsus-Bad/Aroser Allee (Berlin) Charger" lane="57936173#3_0" startPos="49.01" endPos="77.01" power="150000" efficiency="0.95" chargeInTransit="false" friendlyPos="true"/>
  <chargingStation id="cs_agg_10965_25_10970_0" name="S Lichterfelde Süd (Berlin) Charger" lane="148288810#2_0" startPos="78.37" endPos="106.37" power="150000" efficiency="0.95" chargeInTransit="false" friendlyPos="true"/>
  <chargingStation id="cs_agg_12123_27_12124_0_10487_0_10481_42" name="S Lichterfelde Süd (Berlin) Charger" lane="148288810#2_0" startPos="105.52" endPos="147.52" power="150000" efficiency="0.95" chargeInTransit="false" friendlyPos="true"/>
  <chargingStation id="cs_agg_11065_20_11067_0_9852_0_9844_45" name="Titiseestr. (Berlin) Charger" lane="455953261#1_0" startPos="16.60" endPos="58.60" power="150000" efficiency="0.95" chargeInTransit="false" friendlyPos="true"/>
  <chargingStation id="cs_agg_11039_0_11037_12" name="Schlosspark-Klinik (Berlin) Charger" lane="15926759_0" startPos="228.15" endPos="256.15" power="150000" efficiency="0.95" chargeInTransit="false" friendlyPos="true"/>
  <chargingStation id="cs_agg_12763_36_12771_0" name="Berlin, Tunnelstr. Charger" lane="450189363_0" startPos="56.91" endPos="84.91" power="150000" efficiency="0.95" chargeInTransit="false" friendlyPos="true"/>
  <chargingStation id="cs_agg_11475_0_11467_26_11475_1" name="U Mehringdamm (Berlin) Charger" lane="52158843#1_0" startPos="130.51" endPos="172.51" power="150000" efficiency="0.95" chargeInTransit="false" friendlyPos="true"/>
  <chargingStation id="cs_agg_11475_27_10487_39_10481_0_11467_0" name="S Grunewald (Berlin) Charger" lane="172282359_0" startPos="0.00" endPos="34.34" power="150000" efficiency="0.95" chargeInTransit="false" friendlyPos="true"/>
  <chargingStation id="cs_agg_11079_0_11077_9_11079_1_10705_29" name="Berlin, Falkenplatz Charger" lane="-461331989#0_0" startPos="0.00" endPos="39.20" power="150000" efficiency="0.95" chargeInTransit="false" friendlyPos="true"/>
  <chargingStation id="cs_agg_11079_10_11077_0" name="Berlin, Alt-Heiligensee Charger" lane="223737429_0" startPos="42.11" endPos="70.11" power="150000" efficiency="0.95" chargeInTransit="false" friendlyPos="true"/>
  <chargingStation id="cs_agg_11082_16_10120_31_11085_0_12038_6" name="S Schönholz (Berlin) Charger" lane="28819804_0" startPos="0.00" endPos="23.19" power="150000" efficiency="0.95" chargeInTransit="false" friendlyPos="true"/>
  <chargingStation id="cs_agg_9852_46_9844_0" name="U Kurt-Schumacher-Platz (Berlin) Charger" lane="24041366_0" startPos="65.30" endPos="93.30" power="150000" efficiency="0.95" chargeInTransit="false" friendlyPos="true"/>
  <chargingStation id="cs_agg_10120_0_10195_0_12049_0" name="S Buch (Berlin) [Am Sandhaus] Charger" lane="98410013#0_0" startPos="0.00" endPos="33.51" power="150000" efficiency="0.95" chargeInTransit="false" friendlyPos="true"/>
  <chargingStation id="cs_agg_10808_0_11530_0_10808_1_11530_1" name="Roseneck (Berlin) Charger" lane="24673480_0" startPos="33.06" endPos="75.06" power="150000" efficiency="0.95" chargeInTransit="false" friendlyPos="true"/>
  <chargingStation id="cs_agg_9722_0_9722_1" name="Urban Tech Republic (Berlin) Charger" lane="886344278_0" startPos="0.00" endPos="17.20" power="150000" efficiency="0.95" chargeInTransit="false" friendlyPos="true"/>
  <chargingStation id="cs_agg_10980_0_10980_1" name="Waldfriedhof Dahlem (Berlin) Charger" lane="469999032_0" startPos="0.00" endPos="13.00" power="150000" efficiency="0.95" chargeInTransit="false" friendlyPos="true"/>
  <chargingStation id="cs_agg_11090_0_10036_0_12472_0" name="Berlin, Galenstr. Charger" lane="-450086133_0" startPos="0.00" endPos="18.73" power="150000" efficiency="0.95" chargeInTransit="false" friendlyPos="true"/>
</additional>
