<?xml version="1.0" encoding="UTF-8"?>

<!--
    Author: Sven Vorgheim \
    Project: Masterthesis \
    Disclaimer: The Creation of this File was aided by ChatGPT
-->

<additional>
    <chargingStation
        id="cs_U_Nollendorfplatz"
        name="U Nollendorfplatz Charger"
        lane="96418266#0_0"
        startPos="0.00"
        endPos="32.96"
        power="150000"
        efficiency="0.95"
        chargeInTransit="false"/>
    <chargingStation
        id="cs_Hertzallee"
        name="U Hertzallee Charger"
        lane="-25418282_0"
        startPos="72.89"
        endPos="114.89"
        power="150000"
        efficiency="0.95"
        chargeInTransit="false"/>
</additional>