<?xml version="1.0" encoding="UTF-8"?>

<!-- generated on 2025-03-25 15:41:00.699017 by ipykernel_launcher.py UNKNOWN
  options: -f C:\Users\scc\AppData\Roaming\jupyter\runtime\kernel-423bb882-3c41-4988-9698-4d5479eaa569.json
-->

<routes xmlns:xsi="http://www.w3.org/2001/XMLSchema-instance" xsi:noNamespaceSchemaLocation="http://sumo.dlr.de/xsd/routes_file.xsd">
    <vType id="bus" vClass="bus"/>
    <route id="161_3640" color="240,215,34" edges="35662927 32395485#0 32395485#1 469530454#0 469530454#1 469530454#2 -23406199 32395484#0 35662905#0 35662905#1 35662905#2 35662905#3 35662905#4 35662905#5 -38747944 -25956105 -140656356 -43167459 -203942800 -32395481#1 -32395481#0 -32395480#10 -32395480#9 -32395480#8 -32395480#7 -32395480#6 -32395480#5 -32395480#4 -32395480#3 -32395480#2 -32395480#1 -9647891#2 -9647891#1 -9647891#0 -152196197#1 -152196197#0 -371852685#0 -398767400#1 -398767400#0 152258387#0 152258387#1 152258384#1 152258384#2 152258384#3 -152258389#3 -152258389#2 -152258389#1 -152258389#0 -398499663 35218633 -35218633 398499663 152258389#0 152258389#1 152258389#2 152258389#3 152258384#4 152258384#5 152258384#0 -152258387#1 -152258387#0 -860359545#1 -152258315#1 -152258315#0 152258302#0 152258302#1 45401803 -396127407 152258296 396127409 38702994 -169076550 -814580981#1 -26395762">
        <stop busStop="agg_3640_0_3644_22_10231_0_10235_22_10231_1" duration="20.0" until="20.0" parking="true"/><!-- Schöneiche (bei Berlin), Lübecker Str. [Endstelle] -->
        <stop busStop="agg_3640_1_10231_2" duration="20.0" until="80.0" parking="true"/><!-- Schöneiche (bei Berlin), Lübecker Str. -->
        <stop busStop="agg_3640_2_10231_3" duration="20.0" until="140.0" parking="true"/><!-- Schöneiche (bei Berlin), C.-Zetkin-Str. -->
        <stop busStop="agg_3640_3_10231_4" duration="20.0" until="200.0" parking="true"/><!-- Schöneiche (bei Berlin), Hamburger Str. -->
        <stop busStop="agg_3640_4_10231_5" duration="20.0" until="320.0" parking="true"/><!-- Schöneiche (bei Berlin), Seestr. -->
        <stop busStop="agg_3640_5_10231_6" duration="20.0" until="560.0" parking="true"/><!-- S Rahnsdorf (Berlin) -->
        <stop busStop="agg_3640_6_10231_7" duration="20.0" until="680.0" parking="true"/><!-- Rahnsdorf/Waldschänke (Berlin) -->
        <stop busStop="agg_3640_7_10231_8" duration="20.0" until="800.0" parking="true"/><!-- Waldschützpfad (Berlin) -->
        <stop busStop="agg_3640_8_10231_9" duration="20.0" until="860.0" parking="true"/><!-- Hortwinkeler Weg (Berlin) -->
        <stop busStop="agg_3640_9_10231_10_12074_2" duration="20.0" until="920.0" parking="true"/><!-- Petershagener Weg (Berlin) -->
        <stop busStop="agg_3640_10_10231_11" duration="20.0" until="980.0" parking="true"/><!-- Mönchsheimer Str. (Berlin) -->
        <stop busStop="agg_3640_11_10231_12_12074_3" duration="20.0" until="1010.0" parking="true"/><!-- Grünheider Weg (Berlin) -->
        <stop busStop="agg_3640_12_10231_13_12074_4" duration="20.0" until="1100.0" parking="true"/><!-- Fürstenwalder Allee/Schule (Berlin) -->
        <stop busStop="agg_3640_13_10231_14_10235_6_12074_5_3644_6" duration="20.0" until="1160.0" parking="true"/><!-- Schönblicker Str. (Berlin) -->
        <stop busStop="agg_3640_14_10231_15_10235_7_12074_6_3644_7" duration="20.0" until="1220.0" parking="true"/><!-- Frankenbergstr. (Berlin) -->
        <stop busStop="agg_3640_15_10231_16_10235_8_12074_7_3644_8" duration="20.0" until="1280.0" parking="true"/><!-- S Wilhelmshagen (Berlin) -->
        <stop busStop="agg_3640_16_10231_17_10235_9_12074_8_3644_9" duration="20.0" until="1340.0" parking="true"/><!-- Frankenbergstr. (Berlin) -->
        <stop busStop="agg_3640_17_10231_18_10235_10_12074_9_3644_10" duration="20.0" until="1400.0" parking="true"/><!-- Schönblicker Str. (Berlin) -->
        <stop busStop="agg_3640_18_10231_19_12074_10" duration="20.0" until="1460.0" parking="true"/><!-- Lagunenweg (Berlin) -->
        <stop busStop="agg_3640_19_10231_20_12074_11" duration="20.0" until="1520.0" parking="true"/><!-- Fahlenbergstr. (Berlin) -->
        <stop busStop="agg_3640_20_10231_21" duration="20.0" until="1580.0" parking="true"/><!-- Hubertusstr. (Berlin) -->
        <stop busStop="agg_3640_21_10231_22" duration="20.0" until="1640.0" parking="true"/><!-- Eichenstr./Waldstr. (Berlin) -->
        <stop busStop="agg_3640_22_10231_23" duration="20.0" until="1700.0" parking="true"/><!-- Dämeritzstr. (Berlin) -->
        <stop busStop="agg_3640_23_10231_24" duration="20.0" until="1760.0" parking="true"/><!-- Lutherstr. (Berlin) -->
    </route>
    <route id="161_3644" color="240,215,34" edges="169076550 -38702994 -396127409 -38703007 398767421 -45401803 -152258302#1 -152258302#0 152258315#0 152258315#1 860359545#1 152258387#0 152258387#1 152258384#1 152258384#2 152258384#3 -152258389#3 -152258389#2 -152258389#1 -152258389#0 -398499663 35218633 -35218633 398499663 152258389#0 152258389#1 152258389#2 152258389#3 152258384#4 152258384#5 152258384#0 -152258387#1 -152258387#0 398767400#0 398767400#1 152196198 371852685#1 152196197#1 9647891#0 9647891#1 9647891#2 32395480#1 32395480#2 32395480#3 32395480#4 32395480#5 32395480#6 32395480#7 32395480#8 32395480#9 32395480#10 32395481#0 32395481#1 854964290 711095142 398767414 25956105 38747943 -35662905#5 -35662905#4 -35662905#3 -35662905#2 -35662905#1 -35662905#0 -32395484#0 23406199 -469530454#2 -469530454#1 -469530454#0 -23406205 -23406202#1 -23406202#0 35662927">
        <stop busStop="agg_10235_0_3644_0" duration="20.0" until="20.0" parking="true"/><!-- Lutherstr. (Berlin) -->
        <stop busStop="agg_10235_1_12074_12_3644_1_12076_0" duration="20.0" until="80.0" parking="true"/><!-- Dämeritzstr. (Berlin) -->
        <stop busStop="agg_10235_2_3644_2_12076_1" duration="20.0" until="140.0" parking="true"/><!-- Eichenstr./Waldstr. (Berlin) -->
        <stop busStop="agg_10235_3_3644_3_12076_2" duration="20.0" until="200.0" parking="true"/><!-- Hubertusstr. (Berlin) -->
        <stop busStop="agg_10235_4_3644_4_12076_3" duration="20.0" until="260.0" parking="true"/><!-- Fahlenbergstr. (Berlin) -->
        <stop busStop="agg_10235_5_3644_5_12076_4" duration="20.0" until="320.0" parking="true"/><!-- Lagunenweg (Berlin) -->
        <stop busStop="agg_3640_13_10231_14_10235_6_12074_5_3644_6" duration="20.0" until="380.0" parking="true"/><!-- Schönblicker Str. (Berlin) -->
        <stop busStop="agg_3640_14_10231_15_10235_7_12074_6_3644_7" duration="20.0" until="440.0" parking="true"/><!-- Frankenbergstr. (Berlin) -->
        <stop busStop="agg_3640_15_10231_16_10235_8_12074_7_3644_8" duration="20.0" until="500.0" parking="true"/><!-- S Wilhelmshagen (Berlin) -->
        <stop busStop="agg_3640_16_10231_17_10235_9_12074_8_3644_9" duration="20.0" until="560.0" parking="true"/><!-- Frankenbergstr. (Berlin) -->
        <stop busStop="agg_3640_17_10231_18_10235_10_12074_9_3644_10" duration="20.0" until="620.0" parking="true"/><!-- Schönblicker Str. (Berlin) -->
        <stop busStop="agg_10235_11_3644_11_12076_5" duration="20.0" until="680.0" parking="true"/><!-- Fürstenwalder Allee/Schule (Berlin) -->
        <stop busStop="agg_10235_12_3644_12_12076_6" duration="20.0" until="800.0" parking="true"/><!-- Grünheider Weg (Berlin) -->
        <stop busStop="agg_10235_13_3644_13_12076_7" duration="20.0" until="860.0" parking="true"/><!-- Mönchsheimer Str. (Berlin) -->
        <stop busStop="agg_10235_14_3644_14_12076_8" duration="20.0" until="890.0" parking="true"/><!-- Petershagener Weg (Berlin) -->
        <stop busStop="agg_10235_15_3644_15_12076_9" duration="20.0" until="920.0" parking="true"/><!-- Hortwinkeler Weg (Berlin) -->
        <stop busStop="agg_10235_16_3644_16_12076_10" duration="20.0" until="980.0" parking="true"/><!-- Waldschützpfad (Berlin) -->
        <stop busStop="agg_10235_17_3644_17" duration="20.0" until="1040.0" parking="true"/><!-- Rahnsdorf/Waldschänke (Berlin) -->
        <stop busStop="agg_10235_18_3644_18" duration="20.0" until="1160.0" parking="true"/><!-- S Rahnsdorf (Berlin) -->
        <stop busStop="agg_10235_19_3644_19" duration="20.0" until="1400.0" parking="true"/><!-- Schöneiche (bei Berlin), Seestr. -->
        <stop busStop="agg_10235_20_3644_20" duration="20.0" until="1520.0" parking="true"/><!-- Schöneiche (bei Berlin), Hamburger Str. -->
        <stop busStop="agg_10235_21_3644_21" duration="20.0" until="1580.0" parking="true"/><!-- Schöneiche (bei Berlin), C.-Zetkin-Str. -->
        <stop busStop="agg_3640_0_3644_22_10231_0_10235_22_10231_1" duration="20.0" until="1700.0" parking="true"/><!-- Schöneiche (bei Berlin), Lübecker Str. [Endstelle] -->
    </route>
    <route id="363_3646" color="240,215,34" edges="963783516 1049629915 22918370#0 156066220 377862703 156066221#0 156066221#1 410955359#1 515846208 -536124113 -515846204 -151627008#1 -40343635#0 -40343634#0 -46101882#2 -46101882#1 -46101882#0 -799495816#0 -421504175 -46101881 153260658 822204624 226981977#1 226981975#1 153260655 30193970 82212039">
        <stop busStop="3646_0" duration="20.0" until="20.0" parking="true"/><!-- S Grünau (Berlin) -->
        <stop busStop="agg_3646_1_11137_2_10258_24" duration="20.0" until="260.0" parking="true"/><!-- Grottewitzstr. (Berlin) -->
        <stop busStop="agg_3646_2_11137_3_10258_25" duration="20.0" until="320.0" parking="true"/><!-- Zur Gartenstadt (Berlin) -->
        <stop busStop="agg_3646_3_11137_4_10258_26" duration="20.0" until="380.0" parking="true"/><!-- Sausenberger Str. (Berlin) -->
        <stop busStop="agg_3646_4_11137_5" duration="20.0" until="440.0" parking="true"/><!-- Johannes-Tobei-Str. (Berlin) -->
        <stop busStop="agg_3646_5_11137_6_11139_0" duration="20.0" until="560.0" parking="true"/><!-- Krankenhaus Hedwigshöhe (Berlin) -->
    </route>
    <route id="363_3647" color="240,215,34" edges="-82212039 -30193970 -153260655 -226981981 -226981975#0 -226981977#0 822204626 46101881 421504175 799495816#0 46101882#0 46101882#1 46101882#2 40343634#0 40343635#0 151627008#1 436928281 536124113 958968182 639935469 639493947 158514782 963784387 963783516">
        <stop busStop="3647_0" duration="20.0" until="20.0" parking="true"/><!-- Krankenhaus Hedwigshöhe (Berlin) -->
        <stop busStop="agg_11139_1_3647_1" duration="20.0" until="140.0" parking="true"/><!-- Johannes-Tobei-Str. (Berlin) -->
        <stop busStop="agg_10262_5_11139_2_3647_2" duration="20.0" until="200.0" parking="true"/><!-- Sausenberger Str. (Berlin) -->
        <stop busStop="agg_10262_6_11139_3_3647_3" duration="20.0" until="260.0" parking="true"/><!-- Zur Gartenstadt (Berlin) -->
        <stop busStop="agg_10262_7_11139_4_3647_4" duration="20.0" until="320.0" parking="true"/><!-- Grottewitzstr. (Berlin) -->
        <stop busStop="agg_11137_0_11139_5_3647_5" duration="20.0" until="500.0" parking="true"/><!-- S Grünau (Berlin) -->
    </route>
    <route id="100_9627" color="240,215,34" edges="-25418282 -392739719 -173219934 163385719 32749335 344989747 545634012#1 151525565#1 151525565#3 151525565#5 151525565#6 332465097 332465100 529244461#1 529244461#2 327462537 153151355#1 153151355#2 153151355#3 529244460#1 529244460#2 188491275#1 335396340#0 16095526#1 -465311607 153151441#3 314432301#0 24912623#1 11405639#1 309600203 45842276#0 127231789 153653003 309600204 153652999 309600201#0 498330836 4413638 30806886#0 30806886#1 156341122#0 376980963#1 433867833 433867834 623593133#2 67713117#1 68711084#2 437325055#2 108031933#0 38912785 24240246#1 236092221#0 236092221#1 342968607#1 461526152#1 340498982#1 340498982#2 340498982#5 354528932 251884680 339201217#1 54048862#0 54048862#2 831694400 202156994#0 72157174#1 195401006 195401017#3 19002403#1">
        <stop busStop="agg_9627_0_9735_0_10804_0_11658_0_11946_0_11979_0_11838_17_11649_0_9724_0_10632_0_11941_14_10740_0_12482_0_11703_0" duration="20.0" until="20.0" parking="true"/><!-- Hertzallee (Berlin) -->
        <stop busStop="agg_10804_1_11979_1_11658_1_11833_22_10632_1_11835_0_9627_1_11838_18" duration="20.0" until="260.0" parking="true"/><!-- S+U Zoologischer Garten Bhf (Berlin) -->
        <stop busStop="9627_2" duration="20.0" until="380.0" parking="true"/><!-- Breitscheidplatz (Berlin) -->
        <stop busStop="9627_3" duration="20.0" until="500.0" parking="true"/><!-- Bayreuther Str. (Berlin) -->
        <stop busStop="9627_4" duration="20.0" until="560.0" parking="true"/><!-- Schillstr. (Berlin) -->
        <stop busStop="agg_9627_5_11979_7_11530_21_9669_20" duration="20.0" until="620.0" parking="true"/><!-- Lützowplatz (Berlin) -->
        <stop busStop="agg_9627_6_11979_8_9669_21" duration="20.0" until="680.0" parking="true"/><!-- Nordische Botschaften/Adenauer-Stiftung (Berlin) -->
        <stop busStop="9627_7" duration="20.0" until="800.0" parking="true"/><!-- Großer Stern (Berlin) -->
        <stop busStop="9627_8" duration="20.0" until="860.0" parking="true"/><!-- Schloss Bellevue (Berlin) -->
        <stop busStop="9627_9" duration="20.0" until="980.0" parking="true"/><!-- Haus der Kulturen der Welt (Berlin) -->
        <stop busStop="9627_10" duration="20.0" until="1040.0" parking="true"/><!-- Platz der Republik (Berlin) -->
        <stop busStop="9627_11" duration="20.0" until="1160.0" parking="true"/><!-- Reichstag/Bundestag (Berlin) -->
        <stop busStop="agg_9627_12_11859_4" duration="20.0" until="1280.0" parking="true"/><!-- S+U Brandenburger Tor (Berlin) -->
        <stop busStop="agg_9627_13_11859_5" duration="20.0" until="1400.0" parking="true"/><!-- U Unter den Linden (Berlin) -->
        <stop busStop="agg_9627_14_11859_6" duration="20.0" until="1520.0" parking="true"/><!-- Staatsoper (Berlin) -->
        <stop busStop="agg_9627_15_11859_7" duration="20.0" until="1580.0" parking="true"/><!-- U Museumsinsel (Berlin) -->
        <stop busStop="agg_9627_16_11923_12_11859_8_11838_37" duration="20.0" until="1700.0" parking="true"/><!-- Spandauer Str./Marienkirche (Berlin) -->
        <stop busStop="agg_9627_17_11838_38_11859_9" duration="20.0" until="1820.0" parking="true"/><!-- S+U Alexanderplatz Bhf/Memhardstr. (Berlin) -->
        <stop busStop="9627_18" duration="20.0" until="1940.0" parking="true"/><!-- Memhardstr. (Berlin) -->
        <stop busStop="9627_19" duration="20.0" until="2060.0" parking="true"/><!-- Memhardstr. (Berlin) -->
    </route>
    <route id="100_9629" color="240,215,34" edges="756306892 112128419#1 415280722 24913519#1 61584187#1 54048863 15971197#0 15971197#1 169195795#0 169195795#3 169195795#4 169195795#5 340498988#0 188386313#1 24913304#1 24913304#2 -108031933#0 -437325055#2 -176273730#0 -405100404#0 -4399488 156341117#0 156341117#1 433867835#2 30194726 61820398#0 61820398#1 30806884#0 30806884#1 30806885 154879575#0 206170868#1 309602347#0 24912848#1 309600202#0 309600202#1 309600202#2 39839672 12679039 678030549 11406337#1 678030955 11406328 24912614#1 24912614#2 24912614#7 24912614#8 188491279#0 188491279#1 188491279#2 335398606#0 24912422#2 24912422#4 24912422#6 24912422#7 24912422#9 149842929#0 151527795#2 335393888#0 24912323#1">
        <stop busStop="9629_0" duration="20.0" until="20.0" parking="true"/><!-- Memhardstr. (Berlin) -->
        <stop busStop="agg_12011_0_12009_22_11864_38_12000_17_11845_11_10621_11_12093_63_12054_1_9629_1_12083_0_11921_38" duration="20.0" until="140.0" parking="true"/><!-- S+U Alexanderplatz Bhf/Memhardstr. (Berlin) -->
        <stop busStop="agg_10621_12_11864_39_12054_2_12000_18_9629_2_11845_12_12083_1_11921_39" duration="20.0" until="320.0" parking="true"/><!-- Spandauer Str./Marienkirche (Berlin) -->
        <stop busStop="agg_11864_40_12656_13_9629_3" duration="20.0" until="440.0" parking="true"/><!-- U Museumsinsel (Berlin) -->
        <stop busStop="agg_11864_41_12656_14_9629_4" duration="20.0" until="560.0" parking="true"/><!-- Staatsoper (Berlin) -->
        <stop busStop="agg_11864_42_12656_15_9629_5" duration="20.0" until="680.0" parking="true"/><!-- U Unter den Linden (Berlin) -->
        <stop busStop="agg_11864_43_9629_6" duration="20.0" until="800.0" parking="true"/><!-- S+U Brandenburger Tor (Berlin) -->
        <stop busStop="9629_7" duration="20.0" until="980.0" parking="true"/><!-- Reichstag/Bundestag (Berlin) -->
        <stop busStop="9629_8" duration="20.0" until="1040.0" parking="true"/><!-- Platz der Republik (Berlin) -->
        <stop busStop="9629_9" duration="20.0" until="1160.0" parking="true"/><!-- Haus der Kulturen der Welt (Berlin) -->
        <stop busStop="agg_9629_10_10498_7" duration="20.0" until="1280.0" parking="true"/><!-- Schloss Bellevue (Berlin) -->
        <stop busStop="agg_9629_11_10498_8" duration="20.0" until="1340.0" parking="true"/><!-- Großer Stern (Berlin) -->
        <stop busStop="agg_9629_12_9661_15_10498_9_11978_15" duration="20.0" until="1460.0" parking="true"/><!-- Nordische Botschaften/Adenauer-Stiftung (Berlin) -->
        <stop busStop="agg_11538_26_9629_13_9661_16_10498_10_11978_16" duration="20.0" until="1520.0" parking="true"/><!-- Lützowplatz (Berlin) -->
        <stop busStop="9629_14" duration="20.0" until="1580.0" parking="true"/><!-- Schillstr. (Berlin) -->
        <stop busStop="9629_15" duration="20.0" until="1640.0" parking="true"/><!-- Bayreuther Str. (Berlin) -->
        <stop busStop="agg_10621_27_9629_16" duration="20.0" until="1700.0" parking="true"/><!-- Breitscheidplatz (Berlin) -->
        <stop busStop="agg_10621_28_9629_17_11845_31_11943_12_11649_2_10740_2" duration="20.0" until="1820.0" parking="true"/><!-- S+U Zoologischer Garten/Jebensstr. (Berlin) -->
    </route>
    <route id="101_9633" color="240,215,34" edges="671403224#1 329967776#0 497898320#1 4424794#3 42104627#1 42104627#2 42104627#3 329967778#0 329967778#1 329967780#1 482223508#0 4540284#2 182604676#1 24654535#1 137501593#0 137501593#1 -689406334#2 -689406332#0 -4400974 -136814134#2 -659119234#1 -168896326#0 -24619225#1 -24619225#0 24619227#1 24619223 610848023#0 610847999#1 4490162 37036260#0 37036260#5 37036260#6 148670266#0 112442380#1 112442376 112442386 112442096 112442378#0 112442378#5 112442434#0 112442432 4490380#0 4491644#1 4413756#1 -572108462#2 -593476355#3 -593476355#2 -4413754#2 -4413754#1 -4413754#0 4413753#0 25199263#1 25204788#0 84793975#1 108911227 37499145#5 4370506#1 4370506#2 4535227#1 4535225#0 4535225#4 4535225#5 4535225#9 4675431#2 332875218#1 85127867#0 85127867#1 85127867#2 837553910#0 837553910#1 108886196#0 606178178#0 25199729#0 25199729#2 25199729#3 25199729#4 25199729#5 25199729#7 284421836 4586202#1 4405254#1 150684001#0 158184091#1 158184091#2 158184091#3 158184091#4 311904862#0 4475955#1 -25199872#15 -25199872#14 -25199872#13 -25199872#12 -25199872#11 -25199872#6 -25199872#5 -25199872#4 -25199872#3 -25199872#2 25199874#0 148670270#1 148670270#2 405884013 25199875#0 25199875#3 25199875#4 4439811#0 4439811#1 4439811#3 387454341#0 30243829#0 30243829#1 30243829#2 30243829#3 30243829#5 831660642 329984187#0 -501432100 467184791#2 68568103 535575648#2 112408882#0 112408882#1 112408882#2 112408882#4 112408882#6 112408882#8 112408882#9 112408882#10 112408882#11 -246049143#2 -246049143#1 -246049143#0 -157044919 -140336718#1 -140336718#0">
        <stop busStop="agg_9633_0_9633_1" duration="20.0" until="20.0" parking="true"/><!-- Berlin, Turmstr./Lübecker Str. -->
        <stop busStop="agg_9633_2_9863_13_11518_20_12000_1" duration="20.0" until="80.0" parking="true"/><!-- U Turmstr. (Berlin) -->
        <stop busStop="agg_9633_3_9863_14_11518_21" duration="20.0" until="200.0" parking="true"/><!-- Rathaus Tiergarten (Berlin) -->
        <stop busStop="9633_4" duration="20.0" until="380.0" parking="true"/><!-- Turmstr./Waldstr. (Berlin) -->
        <stop busStop="agg_9633_5_9661_10_11978_10" duration="20.0" until="500.0" parking="true"/><!-- Alt-Moabit/Gotzkowskystr. (Berlin) -->
        <stop busStop="9633_6" duration="20.0" until="560.0" parking="true"/><!-- Franklinstr. (Berlin) -->
        <stop busStop="9633_7" duration="20.0" until="680.0" parking="true"/><!-- Helmholtzstr. (Berlin) -->
        <stop busStop="9633_8" duration="20.0" until="740.0" parking="true"/><!-- Guerickestr. (Berlin) -->
        <stop busStop="9633_9" duration="20.0" until="860.0" parking="true"/><!-- Otto-Suhr-Allee/Leibnizstr. (Berlin) -->
        <stop busStop="9633_10" duration="20.0" until="980.0" parking="true"/><!-- Bismarckstr./Leibnizstr. (Berlin) -->
        <stop busStop="9633_11" duration="20.0" until="1040.0" parking="true"/><!-- Berlin, Goethestr. -->
        <stop busStop="9633_12" duration="20.0" until="1160.0" parking="true"/><!-- Berlin, Kantstr./Leibnizstr. -->
        <stop busStop="9633_13" duration="20.0" until="1280.0" parking="true"/><!-- Mommsenstr. (Berlin) -->
        <stop busStop="9633_14" duration="20.0" until="1400.0" parking="true"/><!-- Olivaer Platz (Berlin) -->
        <stop busStop="9633_15" duration="20.0" until="1460.0" parking="true"/><!-- Düsseldorfer Str. (Berlin) -->
        <stop busStop="9633_16" duration="20.0" until="1580.0" parking="true"/><!-- U Konstanzer Str. (Berlin) -->
        <stop busStop="agg_9633_17_12786_12" duration="20.0" until="1700.0" parking="true"/><!-- U Fehrbelliner Platz (Berlin) -->
        <stop busStop="9633_18" duration="20.0" until="1820.0" parking="true"/><!-- U Blissestr. (Berlin) -->
        <stop busStop="9633_19" duration="20.0" until="1880.0" parking="true"/><!-- Berlin, Am Volkspark -->
        <stop busStop="9633_20" duration="20.0" until="1940.0" parking="true"/><!-- Birger-Forell-Platz (Berlin) -->
        <stop busStop="9633_21" duration="20.0" until="2000.0" parking="true"/><!-- Detmolder Str./Blissestr. (Berlin) -->
        <stop busStop="agg_9633_22_11856_11" duration="20.0" until="2060.0" parking="true"/><!-- Hanauer Str. (Berlin) -->
        <stop busStop="agg_9633_23_11856_12" duration="20.0" until="2120.0" parking="true"/><!-- Deidesheimer Str. (Berlin) -->
        <stop busStop="agg_9633_24_10802_35_11856_13" duration="20.0" until="2240.0" parking="true"/><!-- Wiesbadener Str./Laubacher Str. (Berlin) -->
        <stop busStop="agg_9633_25_10802_36_11856_14" duration="20.0" until="2300.0" parking="true"/><!-- Laubenheimer Str. (Berlin) -->
        <stop busStop="agg_9633_26_10802_37_11856_15" duration="20.0" until="2360.0" parking="true"/><!-- U Breitenbachplatz (Berlin) -->
        <stop busStop="agg_9633_27_11856_16" duration="20.0" until="2420.0" parking="true"/><!-- Schorlemerallee (Berlin) -->
        <stop busStop="agg_9633_28_11856_17" duration="20.0" until="2480.0" parking="true"/><!-- Rohlfsstr. (Berlin) -->
        <stop busStop="9633_29" duration="20.0" until="2540.0" parking="true"/><!-- Königin-Luise-Platz/Botanischer Garten (Berlin) -->
        <stop busStop="9633_30" duration="20.0" until="2600.0" parking="true"/><!-- Limonenstr. (Berlin) -->
        <stop busStop="9633_31" duration="20.0" until="2660.0" parking="true"/><!-- Altensteinstr./Fabeckstr. (Berlin) -->
        <stop busStop="9633_32" duration="20.0" until="2720.0" parking="true"/><!-- Reichensteiner Weg (Berlin) -->
        <stop busStop="agg_9633_33_11683_28" duration="20.0" until="2780.0" parking="true"/><!-- Unter den Eichen/Drakestr. (Berlin) -->
        <stop busStop="agg_9633_34_11683_29" duration="20.0" until="2840.0" parking="true"/><!-- Von-Laue-Str. (Berlin) -->
        <stop busStop="agg_9633_35_11683_30" duration="20.0" until="2900.0" parking="true"/><!-- Thielallee/Dahlemer Weg (Berlin) -->
        <stop busStop="agg_9633_36_11683_31" duration="20.0" until="2960.0" parking="true"/><!-- Holländische Mühle (Berlin) -->
        <stop busStop="agg_9633_37_12434_28_11683_32" duration="20.0" until="3020.0" parking="true"/><!-- Winfriedstr. (Berlin) -->
        <stop busStop="agg_9633_38_11683_33" duration="20.0" until="3080.0" parking="true"/><!-- Kleinaustr. (Berlin) -->
        <stop busStop="agg_9633_39_12119_1_11946_34_9777_22_9750_11_10980_9" duration="20.0" until="3200.0" parking="true"/><!-- Berlin, Zehlendorf Eiche -->
        <stop busStop="agg_9633_40_12119_2_11946_35_9777_23_9750_12_10980_10" duration="20.0" until="3320.0" parking="true"/><!-- S Zehlendorf (Berlin) -->
        <stop busStop="agg_9633_41_11946_36" duration="20.0" until="3380.0" parking="true"/><!-- Machnower Str./Berlepschstr. (Berlin) -->
        <stop busStop="agg_9633_42_11946_37" duration="20.0" until="3440.0" parking="true"/><!-- Schrockstr. (Berlin) -->
        <stop busStop="agg_9633_43_11946_38" duration="20.0" until="3500.0" parking="true"/><!-- Behring-Krankenhaus (Berlin) -->
        <stop busStop="agg_9633_44_11946_39" duration="20.0" until="3560.0" parking="true"/><!-- Gutzmannstr. (Berlin) -->
        <stop busStop="agg_9633_45_11946_40" duration="20.0" until="3680.0" parking="true"/><!-- Ludwigsfelder Str./Sachtlebenstr. (Berlin) -->
        <stop busStop="agg_9633_46_11946_41" duration="20.0" until="3740.0" parking="true"/><!-- Nieritzweg (Berlin) -->
        <stop busStop="agg_9633_47_11946_42" duration="20.0" until="3800.0" parking="true"/><!-- Windsteiner Weg (Berlin) -->
        <stop busStop="agg_9633_48_11946_43_11949_0_9646_0" duration="20.0" until="3860.0" parking="true"/><!-- Sachtlebenstr. (Berlin) -->
    </route>
    <route id="101_9646" color="240,215,34" edges="-140336718#0 4729907#2 318434639#0 42721601 109694466#1 -109694466#1 -42721601 -318434639#0 -4729907#2 149522550#2 140336718#1 140336718#2 246049143#0 246049143#1 246049143#2 -112408882#11 -112408882#10 -112408882#9 -112408882#8 -112408882#6 -112408882#4 -112408882#2 -112408882#1 -112408882#0 -28950614 -61450606#0 -37609023#0 5364049#2 149843723#1 329984188 831660641#0 831660641#2 831660641#3 831660641#4 831660641#5 30243828#0 30243828#1 30243828#2 387454340#0 4484277#0 4484277#3 713482805 4484276 405884014#0 148670264#1 25199872#2 25199872#3 25199872#4 25199872#5 25199872#6 25199872#11 25199872#12 25199872#13 25199872#14 25199872#15 4475954#0 437152241#1 149992022#0 149992022#1 149992022#2 149992022#3 149992022#4 25199732#1 4405253#0 4586201#0 150682836#1 284421835#0 284421835#2 284421835#3 284421835#4 284421835#5 284421835#6 606178177#0 -108886196#1 -837553910#1 -837553910#0 -85127867#2 -85127867#1 -85127867#0 -332875218#1 -332875218#0 -4535225#9 -4535225#5 -4535225#4 -4535225#0 4535228#0 4535228#1 749896509#1 4407115#1 4407115#2 4389663#1 4389663#3 112408880#1 205505802#1 112408885#1 112408885#2 25204787#1 25199270#1 4413754#0 4413754#1 4413754#2 593476355#2 593476355#3 572108462#2 4413755#0 4491643#0 4490379#1 -112442432 112442433#1 -112442378#5 -112442378#0 112427849 112442412 -32909626 4490164#0 112442381#1 -37036260#6 -37036260#5 -37036260#0 -747453201 610848010#0 428660082#1 -610848017 4402675#0 531179970 24619225#1 168896326#0 659119234#1 136814134#2 136814134#3 689406332#0 689406334#2 25184203#0 25184203#1 25184203#2 -24678549#0 28497111#0 -4540284#2 482223507#1 692480564#0 692480563#0 25199401#1 692480562#0 461910873#1 461910877#1 310164489#0 30276434#1">
        <stop busStop="agg_9633_48_11946_43_11949_0_9646_0" duration="20.0" until="20.0" parking="true"/><!-- Sachtlebenstr. (Berlin) -->
        <stop busStop="agg_11949_1_9646_1" duration="20.0" until="80.0" parking="true"/><!-- Sachtlebenstr. (Berlin) -->
        <stop busStop="agg_11949_2_9646_2" duration="20.0" until="140.0" parking="true"/><!-- Windsteiner Weg (Berlin) -->
        <stop busStop="agg_11949_3_9646_3" duration="20.0" until="200.0" parking="true"/><!-- Nieritzweg (Berlin) -->
        <stop busStop="agg_11949_4_9646_4" duration="20.0" until="320.0" parking="true"/><!-- Ludwigsfelder Str./Sachtlebenstr. (Berlin) -->
        <stop busStop="agg_11949_5_9646_5" duration="20.0" until="380.0" parking="true"/><!-- Gutzmannstr. (Berlin) -->
        <stop busStop="agg_11949_6_9646_6" duration="20.0" until="440.0" parking="true"/><!-- Behring-Krankenhaus (Berlin) -->
        <stop busStop="agg_11949_7_9646_7" duration="20.0" until="500.0" parking="true"/><!-- Schrockstr. (Berlin) -->
        <stop busStop="agg_11949_8_9646_8" duration="20.0" until="560.0" parking="true"/><!-- Machnower Str./Berlepschstr. (Berlin) -->
        <stop busStop="agg_11949_9_9773_8_9646_9" duration="20.0" until="740.0" parking="true"/><!-- S Zehlendorf (Berlin) -->
        <stop busStop="agg_9754_26_12117_39_10994_27_11949_10_9793_2_9773_9_9646_10" duration="20.0" until="800.0" parking="true"/><!-- Berlin, Zehlendorf Eiche -->
        <stop busStop="agg_11679_4_9646_11" duration="20.0" until="920.0" parking="true"/><!-- Kleinaustr. (Berlin) -->
        <stop busStop="agg_11679_5_12422_7_9646_12" duration="20.0" until="980.0" parking="true"/><!-- Winfriedstr. (Berlin) -->
        <stop busStop="agg_11679_6_9646_13" duration="20.0" until="1040.0" parking="true"/><!-- Holländische Mühle (Berlin) -->
        <stop busStop="agg_11679_7_9646_14" duration="20.0" until="1100.0" parking="true"/><!-- Thielallee/Dahlemer Weg (Berlin) -->
        <stop busStop="agg_11679_8_9646_15" duration="20.0" until="1220.0" parking="true"/><!-- Von-Laue-Str. (Berlin) -->
        <stop busStop="agg_11407_57_9646_16" duration="20.0" until="1280.0" parking="true"/><!-- Unter den Eichen/Drakestr. (Berlin) -->
        <stop busStop="9646_17" duration="20.0" until="1340.0" parking="true"/><!-- Reichensteiner Weg (Berlin) -->
        <stop busStop="9646_18" duration="20.0" until="1400.0" parking="true"/><!-- Altensteinstr./Fabeckstr. (Berlin) -->
        <stop busStop="9646_19" duration="20.0" until="1460.0" parking="true"/><!-- Limonenstr. (Berlin) -->
        <stop busStop="agg_11857_15_9646_20" duration="20.0" until="1520.0" parking="true"/><!-- Königin-Luise-Platz/Botanischer Garten (Berlin) -->
        <stop busStop="agg_11857_16_9646_21" duration="20.0" until="1580.0" parking="true"/><!-- Rohlfsstr. (Berlin) -->
        <stop busStop="agg_11857_17_9646_22" duration="20.0" until="1640.0" parking="true"/><!-- Schorlemerallee (Berlin) -->