<?xml version="1.0" encoding="UTF-8"?>

<!-- generated on 2025-03-25 15:40:41.812944 by ipykernel_launcher.py UNKNOWN
  options: -f C:\Users\scc\AppData\Roaming\jupyter\runtime\kernel-423bb882-3c41-4988-9698-4d5479eaa569.json
-->

<additional xmlns:xsi="http://www.w3.org/2001/XMLSchema-instance" xsi:noNamespaceSchemaLocation="http://sumo.dlr.de/xsd/additional_file.xsd">
    <busStop id="9627_2" lane="151525565#3_0" startPos="51.67" endPos="64.67" name="Breitscheidplatz (Berlin)" friendlyPos="true" parkingLength="14.00"/>
    <busStop id="9627_3" lane="529244460#1_0" startPos="56.94" endPos="69.94" name="Bayreuther Str. (Berlin)" friendlyPos="true" parkingLength="14.00"/>
    <busStop id="9627_4" lane="188491275#1_0" startPos="141.69" endPos="154.69" name="Schillstr. (Berlin)" friendlyPos="true" parkingLength="14.00"/>
    <busStop id="9627_7" lane="376980963#1_0" startPos="16.55" endPos="29.55" name="Großer Stern (Berlin)" friendlyPos="true" parkingLength="14.00"/>
    <busStop id="9627_8" lane="433867834_0" startPos="164.01" endPos="177.01" name="Schloss Bellevue (Berlin)" friendlyPos="true" parkingLength="14.00"/>
    <busStop id="9627_9" lane="623593133#2_0" startPos="575.02" endPos="588.02" name="Haus der Kulturen der Welt (Berlin)" friendlyPos="true" parkingLength="14.00"/>
    <busStop id="9627_10" lane="623593133#2_0" startPos="1032.38" endPos="1045.38" name="Platz der Republik (Berlin)" friendlyPos="true" parkingLength="14.00"/>
    <busStop id="9627_11" lane="67713117#1_0" startPos="370.81" endPos="383.81" name="Reichstag/Bundestag (Berlin)" friendlyPos="true" parkingLength="14.00"/>
    <busStop id="9627_18" lane="19002403#1_0" startPos="57.53" endPos="70.53" name="Memhardstr. (Berlin)" friendlyPos="true" parkingLength="14.00"/>
    <busStop id="9627_19" lane="19002403#1_0" startPos="103.73" endPos="116.73" name="Memhardstr. (Berlin)" friendlyPos="true" parkingLength="14.00"/>
    <busStop id="9633_4" lane="4540284#2_0" startPos="33.04" endPos="46.04" name="Turmstr./Waldstr. (Berlin)" friendlyPos="true" parkingLength="14.00"/>
    <busStop id="9633_6" lane="-689406334#2_0" startPos="17.26" endPos="30.26" name="Franklinstr. (Berlin)" friendlyPos="true" parkingLength="14.00"/>
    <busStop id="9633_7" lane="-4400974_0" startPos="46.31" endPos="59.31" name="Helmholtzstr. (Berlin)" friendlyPos="true" parkingLength="14.00"/>
    <busStop id="9633_8" lane="-24619225#1_0" startPos="20.49" endPos="33.49" name="Guerickestr. (Berlin)" friendlyPos="true" parkingLength="14.00"/>
    <busStop id="9633_9" lane="-24619225#0_0" startPos="140.26" endPos="153.26" name="Otto-Suhr-Allee/Leibnizstr. (Berlin)" friendlyPos="true" parkingLength="14.00"/>
    <busStop id="9633_10" lane="610847999#1_0" startPos="9.16" endPos="22.16" name="Bismarckstr./Leibnizstr. (Berlin)" friendlyPos="true" parkingLength="14.00"/>
    <busStop id="9633_11" lane="37036260#0_0" startPos="164.70" endPos="177.70" name="Berlin, Goethestr." friendlyPos="true" parkingLength="14.00"/>
    <busStop id="9633_12" lane="148670266#0_0" startPos="28.46" endPos="41.46" name="Berlin, Kantstr./Leibnizstr." friendlyPos="true" parkingLength="14.00"/>
    <busStop id="9633_13" lane="112442378#5_0" startPos="1.52" endPos="14.52" name="Mommsenstr. (Berlin)" friendlyPos="true" parkingLength="14.00"/>
    <busStop id="9633_14" lane="4491644#1_0" startPos="14.42" endPos="27.42" name="Olivaer Platz (Berlin)" friendlyPos="true" parkingLength="14.00"/>
    <busStop id="9633_15" lane="-593476355#2_0" startPos="83.52" endPos="96.52" name="Düsseldorfer Str. (Berlin)" friendlyPos="true" parkingLength="14.00"/>
    <busStop id="9633_16" lane="25199263#1_0" startPos="64.50" endPos="77.50" name="U Konstanzer Str. (Berlin)" friendlyPos="true" parkingLength="14.00"/>
    <busStop id="9633_18" lane="4370506#1_0" startPos="31.31" endPos="44.31" name="U Blissestr. (Berlin)" friendlyPos="true" parkingLength="14.00"/>
    <busStop id="9633_19" lane="4370506#2_0" startPos="110.16" endPos="123.16" name="Berlin, Am Volkspark" friendlyPos="true" parkingLength="14.00"/>
    <busStop id="9633_20" lane="4535225#9_0" startPos="9.10" endPos="22.10" name="Birger-Forell-Platz (Berlin)" friendlyPos="true" parkingLength="14.00"/>
    <busStop id="9633_21" lane="4535225#9_0" startPos="237.67" endPos="250.67" name="Detmolder Str./Blissestr. (Berlin)" friendlyPos="true" parkingLength="14.00"/>
    <busStop id="9633_29" lane="4475955#1_0" startPos="26.19" endPos="39.19" name="Königin-Luise-Platz/Botanischer Garten (Berlin)" friendlyPos="true" parkingLength="14.00"/>
    <busStop id="9633_30" lane="-25199872#13_0" startPos="59.14" endPos="72.14" name="Limonenstr. (Berlin)" friendlyPos="true" parkingLength="14.00"/>
    <busStop id="9633_31" lane="-25199872#11_0" startPos="113.87" endPos="126.87" name="Altensteinstr./Fabeckstr. (Berlin)" friendlyPos="true" parkingLength="14.00"/>
    <busStop id="9633_32" lane="-25199872#3_0" startPos="3.71" endPos="16.71" name="Reichensteiner Weg (Berlin)" friendlyPos="true" parkingLength="14.00"/>
    <busStop id="9704_11" lane="-192498007#2_0" startPos="78.22" endPos="91.22" name="Weißenhöher Str. (Berlin)" friendlyPos="true" parkingLength="14.00"/>
    <busStop id="9704_18" lane="25795962_0" startPos="47.57" endPos="60.57" name="An der Wuhle (Berlin)" friendlyPos="true" parkingLength="14.00"/>
    <busStop id="9704_20" lane="-25879806#2_0" startPos="14.03" endPos="27.03" name="Eichenstr. (Berlin)" friendlyPos="true" parkingLength="14.00"/>
    <busStop id="9704_21" lane="-25879806#0_0" startPos="93.73" endPos="106.73" name="Sadowastr. (Berlin)" friendlyPos="true" parkingLength="14.00"/>
    <busStop id="9704_22" lane="-142810561#8_0" startPos="95.02" endPos="108.02" name="Wielandstr. (Berlin)" friendlyPos="true" parkingLength="14.00"/>
    <busStop id="9704_23" lane="-142810561#4_0" startPos="97.99" endPos="110.99" name="Mechthildstr. (Berlin)" friendlyPos="true" parkingLength="14.00"/>
    <busStop id="9704_24" lane="-142810561#1_0" startPos="165.44" endPos="178.44" name="Kohlisstr. (Berlin)" friendlyPos="true" parkingLength="14.00"/>
    <busStop id="9704_26" lane="22650453#0_0" startPos="162.32" endPos="175.32" name="Wilhelm-Blos-Str. (Berlin)" friendlyPos="true" parkingLength="14.00"/>
    <busStop id="9704_27" lane="22650453#5_0" startPos="16.61" endPos="29.61" name="Mirower Str. (Berlin)" friendlyPos="true" parkingLength="14.00"/>
    <busStop id="9704_28" lane="22650453#7_0" startPos="42.45" endPos="55.45" name="Summter Str. (Berlin)" friendlyPos="true" parkingLength="14.00"/>
    <busStop id="9704_29" lane="28818896#1_0" startPos="2.16" endPos="15.16" name="Waldesruh, Heinrich-Heine-Promenade" friendlyPos="true" parkingLength="14.00"/>
    <busStop id="9704_30" lane="28818896#2_0" startPos="267.41" endPos="280.41" name="Waldesruh, Humboldtstr." friendlyPos="true" parkingLength="14.00"/>
    <busStop id="9735_25" lane="718428117#1_0" startPos="111.80" endPos="124.80" name="U Oskar-Helene-Heim (Berlin)" friendlyPos="true" parkingLength="14.00"/>
    <busStop id="9754_8" lane="29564972#1_0" startPos="28.39" endPos="41.39" name="Stanzer Zeile (Berlin)" friendlyPos="true" parkingLength="14.00"/>
    <busStop id="9754_9" lane="29564972#5_0" startPos="27.56" endPos="40.56" name="Oberhofer Weg (Berlin)" friendlyPos="true" parkingLength="14.00"/>
    <busStop id="9754_10" lane="640473217#0_0" startPos="21.78" endPos="34.78" name="Heinersdorfer Str./Hildburghauser Str. (Berlin)" friendlyPos="true" parkingLength="14.00"/>
    <busStop id="9754_11" lane="640473217#3_0" startPos="32.90" endPos="45.90" name="Blanckertzweg (Berlin)" friendlyPos="true" parkingLength="14.00"/>
    <busStop id="9754_19" lane="-451411017#0_0" startPos="342.85" endPos="355.85" name="Platz des 4. Juli (Berlin)" friendlyPos="true" parkingLength="14.00"/>
    <busStop id="9754_20" lane="-51433882#6_0" startPos="37.99" endPos="50.99" name="Pinnauweg (Berlin)" friendlyPos="true" parkingLength="14.00"/>
    <busStop id="9754_21" lane="-51433882#3_0" startPos="112.94" endPos="125.94" name="Mürwiker Str. (Berlin)" friendlyPos="true" parkingLength="14.00"/>
    <busStop id="9754_22" lane="-33281469#4_0" startPos="16.67" endPos="29.67" name="Jänickestr. (Berlin)" friendlyPos="true" parkingLength="14.00"/>
    <busStop id="9754_23" lane="-33281469#3_0" startPos="143.61" endPos="156.61" name="Knesebeckstr. (Berlin)" friendlyPos="true" parkingLength="14.00"/>
    <busStop id="9754_24" lane="-4881942#5_0" startPos="68.55" endPos="81.55" name="Stubenrauchstr. (Berlin)" friendlyPos="true" parkingLength="14.00"/>
    <busStop id="9754_38" lane="255332594_0" startPos="0.00" endPos="13.00" name="S Nikolassee (Berlin)" friendlyPos="true" parkingLength="14.00"/>
    <busStop id="9754_39" lane="4364478#0_0" startPos="42.12" endPos="55.12" name="Teutonenstr. (Berlin)" friendlyPos="true" parkingLength="14.00"/>
    <busStop id="9754_40" lane="4364478#0_0" startPos="205.88" endPos="218.88" name="Prinz-Friedrich-Leopold-Str. (Berlin)" friendlyPos="true" parkingLength="14.00"/>
    <busStop id="9828_5" lane="33926790_0" startPos="287.61" endPos="300.61" name="Atrium (Berlin)" friendlyPos="true" parkingLength="14.00"/>
    <busStop id="9828_7" lane="4802750#1_0" startPos="16.60" endPos="29.60" name="Bruchstückgraben (Berlin)" friendlyPos="true" parkingLength="14.00"/>
    <busStop id="9828_8" lane="33059749#2_0" startPos="161.84" endPos="174.84" name="Welzower Steig (Berlin)" friendlyPos="true" parkingLength="14.00"/>
    <busStop id="9828_9" lane="136024345#2_0" startPos="37.06" endPos="50.06" name="Blitzenroder Ring (Berlin)" friendlyPos="true" parkingLength="14.00"/>
    <busStop id="9828_10" lane="136024345#5_0" startPos="112.07" endPos="125.07" name="Wittenauer Str./Eichhorster Weg (Berlin)" friendlyPos="true" parkingLength="14.00"/>
    <busStop id="9828_11" lane="-4802588#2_0" startPos="11.05" endPos="24.05" name="Bernshausener Ring (Berlin)" friendlyPos="true" parkingLength="14.00"/>
    <busStop id="9828_31" lane="42732296_0" startPos="12.63" endPos="25.63" name="U Leopoldplatz (Berlin)" friendlyPos="true" parkingLength="14.00"/>
    <busStop id="9863_8" lane="417687070#1_0" startPos="21.68" endPos="34.68" name="Stendaler Str. (Berlin)" friendlyPos="true" parkingLength="14.00"/>
    <busStop id="9863_9" lane="375991062#5_0" startPos="153.97" endPos="166.97" name="Birkenstr./Rathenower Str. (Berlin)" friendlyPos="true" parkingLength="14.00"/>
    <busStop id="9863_10" lane="4424778#1_0" startPos="20.20" endPos="33.20" name="Turmstr./Rathenower Str. (Berlin)" friendlyPos="true" parkingLength="14.00"/>
    <busStop id="9863_11" lane="169017106#1_0" startPos="25.55" endPos="38.55" name="Wilsnacker Str. (Berlin)" friendlyPos="true" parkingLength="14.00"/>
    <busStop id="9863_12" lane="140336721#2_0" startPos="187.59" endPos="200.59" name="Berlin, Turmstr./Lübecker Str." friendlyPos="true" parkingLength="14.00"/>
    <busStop id="9863_19" lane="23734219_0" startPos="18.88" endPos="31.88" name="Seestr./Beusselstr. (Berlin)" friendlyPos="true" parkingLength="14.00"/>
    <busStop id="9863_20" lane="-4484065_0" startPos="342.42" endPos="355.42" name="Gedenkstätte Plötzensee (Berlin)" friendlyPos="true" parkingLength="14.00"/>
    <busStop id="9863_21" lane="4484023_0" startPos="23.53" endPos="36.53" name="Buchholzweg (Berlin)" friendlyPos="true" parkingLength="14.00"/>
    <busStop id="9863_22" lane="4537027#0_0" startPos="47.44" endPos="60.44" name="Friedrich-Olbricht-Damm/Saatwinkler Damm (Berlin)" friendlyPos="true" parkingLength="14.00"/>
    <busStop id="9863_23" lane="4537027#0_0" startPos="401.87" endPos="414.87" name="Stieffring (Berlin)" friendlyPos="true" parkingLength="14.00"/>
    <busStop id="9863_24" lane="-25892150#1_0" startPos="57.90" endPos="70.90" name="Friedrich-Olbricht-Damm/Heckerdamm (Berlin)" friendlyPos="true" parkingLength="14.00"/>
    <busStop id="9863_25" lane="-25892150#1_0" startPos="358.79" endPos="371.79" name="Thaters Privatweg (Berlin)" friendlyPos="true" parkingLength="14.00"/>
    <busStop id="9863_26" lane="-25892150#0_0" startPos="296.12" endPos="309.12" name="Kolonie Zukunft (Berlin)" friendlyPos="true" parkingLength="14.00"/>
    <busStop id="9863_27" lane="-103453514#5_0" startPos="23.55" endPos="36.55" name="Gloedenpfad (Berlin)" friendlyPos="true" parkingLength="14.00"/>
    <busStop id="9863_28" lane="-103453514#2_0" startPos="43.26" endPos="56.26" name="Wirmerzeile (Berlin)" friendlyPos="true" parkingLength="14.00"/>
    <busStop id="9863_29" lane="-103453514#0_0" startPos="208.50" endPos="221.50" name="Reichweindamm (Berlin)" friendlyPos="true" parkingLength="14.00"/>
    <busStop id="9863_30" lane="-4536966#2_0" startPos="18.11" endPos="31.11" name="Goerdelerdamm (Berlin)" friendlyPos="true" parkingLength="14.00"/>
    <busStop id="9863_32" lane="-23722559#0_0" startPos="41.13" endPos="54.13" name="Berlin, Weltlingerbrücke" friendlyPos="true" parkingLength="14.00"/>
    <busStop id="9863_33" lane="-334355605#3_0" startPos="24.63" endPos="37.63" name="Habermannzeile (Berlin)" friendlyPos="true" parkingLength="14.00"/>
    <busStop id="9863_34" lane="-334355605#1_0" startPos="0.00" endPos="13.00" name="Hofackerzeile (Berlin)" friendlyPos="true" parkingLength="14.00"/>
    <busStop id="9863_35" lane="-334355605#0_0" startPos="97.29" endPos="110.29" name="Dahrendorfzeile (Berlin)" friendlyPos="true" parkingLength="14.00"/>
    <busStop id="9863_36" lane="-32196977_0" startPos="160.10" endPos="173.10" name="U Halemweg (Berlin)" friendlyPos="true" parkingLength="14.00"/>
    <busStop id="9863_37" lane="-32196977_0" startPos="305.12" endPos="318.12" name="Toeplerstr./Halemweg (Berlin)" friendlyPos="true" parkingLength="14.00"/>
    <busStop id="9863_38" lane="4581847#2_0" startPos="27.18" endPos="40.18" name="Schweiggerweg (Berlin)" friendlyPos="true" parkingLength="14.00"/>
    <busStop id="9863_39" lane="4581847#5_0" startPos="40.79" endPos="53.79" name="Goebelplatz (Berlin)" friendlyPos="true" parkingLength="14.00"/>
    <busStop id="9863_40" lane="-37739363_0" startPos="29.43" endPos="42.43" name="Popitzweg (Berlin)" friendlyPos="true" parkingLength="14.00"/>
    <busStop id="9863_41" lane="-37739363_0" startPos="465.37" endPos="478.37" name="U Siemensdamm (Berlin)" friendlyPos="true" parkingLength="14.00"/>
    <busStop id="9897_3" lane="-161677837#7_0" startPos="292.68" endPos="305.68" name="Schönbaumer Weg (Berlin)" friendlyPos="true" parkingLength="14.00"/>
    <busStop id="9897_4" lane="-161677837#5_0" startPos="13.57" endPos="26.57" name="Mattenbuder Pfad (Berlin)" friendlyPos="true" parkingLength="14.00"/>
    <busStop id="9897_5" lane="-161677837#4_0" startPos="8.55" endPos="21.55" name="Kurzebracker Weg (Berlin)" friendlyPos="true" parkingLength="14.00"/>
    <busStop id="9897_6" lane="-161677837#1_0" startPos="8.85" endPos="21.85" name="Krantorweg (Berlin)" friendlyPos="true" parkingLength="14.00"/>
    <busStop id="9897_35" lane="-35313016#1_0" startPos="61.91" endPos="74.91" name="Berlin, Hauptstr./Friedrich-Engels-Str." friendlyPos="true" parkingLength="14.00"/>
    <busStop id="9897_36" lane="-35313016#0_0" startPos="112.82" endPos="125.82" name="Rosenthal Kirche (Berlin)" friendlyPos="true" parkingLength="14.00"/>
    <busStop id="9897_37" lane="42689609#2_0" startPos="8.49" endPos="21.49" name="Kräuterweg (Berlin)" friendlyPos="true" parkingLength="14.00"/>
    <busStop id="9897_38" lane="145671826#1_0" startPos="62.03" endPos="75.03" name="Bergrutenpfad (Berlin)" friendlyPos="true" parkingLength="14.00"/>
    <busStop id="9897_39" lane="145671826#3_0" startPos="220.81" endPos="233.81" name="Am Rollberg (Berlin)" friendlyPos="true" parkingLength="14.00"/>
    <busStop id="9897_40" lane="145671826#7_0" startPos="47.95" endPos="60.95" name="Schönhauser Str./Kirchstr. (Berlin)" friendlyPos="true" parkingLength="14.00"/>
    <busStop id="9897_41" lane="-69602660#1_0" startPos="70.94" endPos="83.94" name="Berlin, Nordend" friendlyPos="true" parkingLength="14.00"/>
    <busStop id="9897_42" lane="34561455#2_0" startPos="113.47" endPos="126.47" name="Dietzgenstr./Mittelstr. (Berlin)" friendlyPos="true" parkingLength="14.00"/>
    <busStop id="9897_43" lane="-59109760#2_0" startPos="2.37" endPos="15.37" name="Zionsfriedhof (Berlin)" friendlyPos="true" parkingLength="14.00"/>
    <busStop id="9897_44" lane="59109759#0_0" startPos="246.81" endPos="259.81" name="Liliensteinweg (Berlin)" friendlyPos="true" parkingLength="14.00"/>
    <busStop id="9897_45" lane="59109759#0_0" startPos="439.91" endPos="452.91" name="Nordend-Arena (Berlin)" friendlyPos="true" parkingLength="14.00"/>
    <busStop id="9897_46" lane="-458275376#3_0" startPos="34.05" endPos="47.05" name="Champagneweg (Berlin)" friendlyPos="true" parkingLength="14.00"/>
    <busStop id="9897_47" lane="762951894#1_0" startPos="43.76" endPos="56.76" name="Guyotstr. (Berlin)" friendlyPos="true" parkingLength="14.00"/>
    <busStop id="9897_48" lane="111283472#2_0" startPos="59.06" endPos="72.06" name="Berlin, Hugenottenplatz" friendlyPos="true" parkingLength="14.00"/>
    <busStop id="9934_0" lane="802255086_0" startPos="0.00" endPos="13.00" name="S Stresow (Berlin)" friendlyPos="true" parkingLength="14.00"/>
    <busStop id="9934_1" lane="5095384_0" startPos="0.00" endPos="13.00" name="S Stresow (Berlin)" friendlyPos="true" parkingLength="14.00"/>
    <busStop id="9934_2" lane="53276875_0" startPos="29.04" endPos="42.04" name="S Stresow (Berlin)" friendlyPos="true" parkingLength="14.00"/>
    <busStop id="9934_3" lane="5095381#5_0" startPos="36.43" endPos="49.43" name="Stresowplatz (Berlin)" friendlyPos="true" parkingLength="14.00"/>
    <busStop id="9934_4" lane="-5095315#2_0" startPos="25.83" endPos="38.83" name="Breite Str./Markt (Berlin)" friendlyPos="true" parkingLength="14.00"/>
    <busStop id="9934_12" lane="407031195#1_0" startPos="13.82" endPos="26.82" name="Berlin, Falkenseer Chaussee/Zeppelinstr." friendlyPos="true" parkingLength="14.00"/>
    <busStop id="9934_13" lane="407031195#2_0" startPos="189.55" endPos="202.55" name="Berlin, Pionierstr./Zeppelinstr." friendlyPos="true" parkingLength="14.00"/>
    <busStop id="9934_14" lane="-23546257_0" startPos="507.84" endPos="520.84" name="Pausiner Str. (Berlin)" friendlyPos="true" parkingLength="14.00"/>
    <busStop id="9934_15" lane="-31587688#4_0" startPos="3.97" endPos="16.97" name="Schwanter Weg (Berlin)" friendlyPos="true" parkingLength="14.00"/>
    <busStop id="9934_16" lane="-31587688#2_0" startPos="75.45" endPos="88.45" name="Gliensteig (Berlin)" friendlyPos="true" parkingLength="14.00"/>
    <busStop id="9934_17" lane="-31587688#0_0" startPos="146.37" endPos="159.37" name="Bötzow-Bahn (Berlin)" friendlyPos="true" parkingLength="14.00"/>
    <busStop id="9934_18" lane="-31587688#0_0" startPos="685.46" endPos="698.46" name="Sandwiesenweg (Berlin)" friendlyPos="true" parkingLength="14.00"/>
    <busStop id="9934_19" lane="-37290889#0_0" startPos="307.35" endPos="320.35" name="Radelandstr./Pflegeheim (Berlin)" friendlyPos="true" parkingLength="14.00"/>
    <busStop id="9934_20" lane="5025940_0" startPos="250.66" endPos="263.66" name="Berlin, Waldkrankenhaus" friendlyPos="true" parkingLength="14.00"/>
    <busStop id="9934_21" lane="5025940_0" startPos="528.82" endPos="541.82" name="Berlin, Waldkrankenhaus" friendlyPos="true" parkingLength="14.00"/>
    <busStop id="9957_4" lane="-14455092#0_0" startPos="21.17" endPos="34.17" name="Spektebrücke (Berlin)" friendlyPos="true" parkingLength="14.00"/>
    <busStop id="9957_15" lane="57386726#2_0" startPos="8.27" endPos="21.27" name="Berlin, Lutoner Str." friendlyPos="true" parkingLength="14.00"/>
    <busStop id="9957_16" lane="24652574_0" startPos="181.36" endPos="194.36" name="Kolonie Hasenheide (Berlin)" friendlyPos="true" parkingLength="14.00"/>
    <busStop id="9957_17" lane="4609188#1_0" startPos="37.43" endPos="50.43" name="Berlin, Melanchthonplatz" friendlyPos="true" parkingLength="14.00"/>
    <busStop id="9957_18" lane="4609187#1_0" startPos="143.20" endPos="156.20" name="Földerichplatz (Berlin)" friendlyPos="true" parkingLength="14.00"/>
    <busStop id="9957_19" lane="4609187#3_0" startPos="66.86" endPos="79.86" name="Berlin, Betckestr." friendlyPos="true" parkingLength="14.00"/>
    <busStop id="9957_21" lane="25113713_0" startPos="19.50" endPos="32.50" name="Götelstr. (Berlin)" friendlyPos="true" parkingLength="14.00"/>
    <busStop id="9957_22" lane="4752743_0" startPos="231.24" endPos="244.24" name="Tiefwerderweg (Berlin)" friendlyPos="true" parkingLength="14.00"/>
    <busStop id="9973_20" lane="39469710#2_0" startPos="0.00" endPos="13.00" name="S Tegel (Berlin)" friendlyPos="true" parkingLength="14.00"/>
    <busStop id="10021_7" lane="546271341_0" startPos="208.53" endPos="221.53" name="Berlin, Gutsstr." friendlyPos="true" parkingLength="14.00"/>
    <busStop id="10021_8" lane="-123104620_0" startPos="665.50" endPos="678.50" name="Außenweg (Berlin)" friendlyPos="true" parkingLength="14.00"/>
    <busStop id="10021_9" lane="-33116346#0_0" startPos="6.73" endPos="19.73" name="Landschaftsfriedhof Gatow (Berlin)" friendlyPos="true" parkingLength="14.00"/>
    <busStop id="10021_10" lane="-169678703_0" startPos="423.31" endPos="436.31" name="Karolinenhöhe (Berlin)" friendlyPos="true" parkingLength="14.00"/>
    <busStop id="10021_11" lane="-4483961#2_0" startPos="14.90" endPos="27.90" name="Weinmeisterhornweg (Berlin)" friendlyPos="true" parkingLength="14.00"/>
    <busStop id="10021_12" lane="-4483961#2_0" startPos="329.82" endPos="342.82" name="Rodensteinstr. (Berlin)" friendlyPos="true" parkingLength="14.00"/>
    <busStop id="10021_13" lane="-782402204#1_0" startPos="0.00" endPos="13.00" name="Berlin, Heerstr./Wilhelmstr." friendlyPos="true" parkingLength="14.00"/>
    <busStop id="10021_14" lane="4868262#0_0" startPos="203.56" endPos="216.56" name="Berlin, Am Omnibushof" friendlyPos="true" parkingLength="14.00"/>
    <busStop id="10045_0" lane="1108471989_0" startPos="93.39" endPos="106.39" name="Hennigsdorf, Stadtklubhaus" friendlyPos="true" parkingLength="14.00"/>
    <busStop id="10045_1" lane="32706239#1_0" startPos="467.52" endPos="480.52" name="Hennigsdorf, Clara-Schabbel-Str." friendlyPos="true" parkingLength="14.00"/>
    <busStop id="10045_2" lane="-23243432_0" startPos="189.17" endPos="202.17" name="Nieder Neuendorf, Havelpromenade" friendlyPos="true" parkingLength="14.00"/>
    <busStop id="10045_3" lane="-MA009_0" startPos="422.83" endPos="435.83" name="Nieder Neuendorf, Zur Baumschule" friendlyPos="true" parkingLength="14.00"/>
    <busStop id="10045_4" lane="-MA009_0" startPos="662.92" endPos="675.92" name="Nieder Neuendorf, Bahnhofstr." friendlyPos="true" parkingLength="14.00"/>
    <busStop id="10045_5" lane="-MA007_0" startPos="14.14" endPos="27.14" name="Nieder Neuendorf, Oberjägerweg" friendlyPos="true" parkingLength="14.00"/>
    <busStop id="10045_6" lane="MA018_0" startPos="113.29" endPos="126.29" name="Papenberge, Waldmeisterstr." friendlyPos="true" parkingLength="14.00"/>
    <busStop id="10045_7" lane="MA018_0" startPos="598.54" endPos="611.54" name="Papenberge, Spandauer Landstr." friendlyPos="true" parkingLength="14.00"/>
    <busStop id="10045_8" lane="130105246_0" startPos="12.65" endPos="25.65" name="Bürgerablage (Berlin)" friendlyPos="true" parkingLength="14.00"/>
    <busStop id="10045_9" lane="1301052460_0" startPos="21.53" endPos="34.53" name="Papenberger Weg (Berlin)" friendlyPos="true" parkingLength="14.00"/>
    <busStop id="10045_10" lane="130105247#1_0" startPos="28.35" endPos="41.35" name="Rustweg (Berlin)" friendlyPos="true" parkingLength="14.00"/>
    <busStop id="10045_11" lane="130105247#1_0" startPos="223.92" endPos="236.92" name="Berlin, Aalemannufer" friendlyPos="true" parkingLength="14.00"/>
    <busStop id="10045_14" lane="18830950#0_0" startPos="21.93" endPos="34.93" name="Mertensstr. (Berlin)" friendlyPos="true" parkingLength="14.00"/>
    <busStop id="10060_5" lane="-24028197#7_0" startPos="12.29" endPos="25.29" name="Rudolf-Wissell-Siedlung (Berlin)" friendlyPos="true" parkingLength="14.00"/>
    <busStop id="10060_6" lane="-24028197#5_0" startPos="58.57" endPos="71.57" name="Baluschekweg (Berlin)" friendlyPos="true" parkingLength="14.00"/>
    <busStop id="10060_7" lane="-24028197#3_0" startPos="134.33" endPos="147.33" name="Leubnitzer Weg (Berlin)" friendlyPos="true" parkingLength="14.00"/>
    <busStop id="10060_25" lane="57388246#2_0" startPos="19.00" endPos="32.00" name="Beerwinkel (Berlin)" friendlyPos="true" parkingLength="14.00"/>
    <busStop id="10060_26" lane="57388246#2_0" startPos="183.60" endPos="196.60" name="Am Bogen (Berlin)" friendlyPos="true" parkingLength="14.00"/>
    <busStop id="10060_28" lane="-111265282#2_0" startPos="31.96" endPos="44.96" name="Berlin, Freudstr." friendlyPos="true" parkingLength="14.00"/>
    <busStop id="10060_29" lane="23382140_0" startPos="1.58" endPos="14.58" name="Goldkäferweg (Berlin)" friendlyPos="true" parkingLength="14.00"/>
    <busStop id="10067_0" lane="741708105#2_0" startPos="0.00" endPos="13.00" name="S+U Tempelhof (Berlin)" friendlyPos="true" parkingLength="14.00"/>
    <busStop id="10067_5" lane="-169753571#2_0" startPos="80.77" endPos="93.77" name="Ringbahnstr. (Berlin)" friendlyPos="true" parkingLength="14.00"/>
    <busStop id="10067_6" lane="825937639#4_0" startPos="0.07" endPos="13.07" name="Berlin, Boelckestr./Hoeppnerstr." friendlyPos="true" parkingLength="14.00"/>
    <busStop id="10067_7" lane="825937638#2_0" startPos="1.56" endPos="14.56" name="Rumeyplan (Berlin)" friendlyPos="true" parkingLength="14.00"/>
    <busStop id="10067_10" lane="831372993#1_0" startPos="116.47" endPos="129.47" name="Berlin, Dudenstr./Katzbachstr." friendlyPos="true" parkingLength="14.00"/>
    <busStop id="10067_11" lane="-53356539#0_0" startPos="15.71" endPos="28.71" name="Monumentenstr. (Berlin)" friendlyPos="true" parkingLength="14.00"/>
    <busStop id="10067_12" lane="478649994#2_0" startPos="16.95" endPos="29.95" name="Viktoriapark (Berlin)" friendlyPos="true" parkingLength="14.00"/>
    <busStop id="10067_13" lane="11342758#2_0" startPos="19.88" endPos="32.88" name="Kreuzberg/Wasserfall (Berlin)" friendlyPos="true" parkingLength="14.00"/>
    <busStop id="10067_14" lane="25036025#2_0" startPos="162.91" endPos="175.91" name="Hornstr.(Berlin)" friendlyPos="true" parkingLength="14.00"/>
    <busStop id="10067_16" lane="52158841#6_0" startPos="15.26" endPos="28.26" name="U Gneisenaustr. (Berlin)" friendlyPos="true" parkingLength="14.00"/>
    <busStop id="10067_17" lane="489480666#0_0" startPos="12.17" endPos="25.17" name="Gneisenaustr./Baerwaldstr. (Berlin)" friendlyPos="true" parkingLength="14.00"/>
    <busStop id="10067_18" lane="8005348#0_0" startPos="19.86" endPos="32.86" name="Urbanstr./Baerwaldstr. (Berlin)" friendlyPos="true" parkingLength="14.00"/>
    <busStop id="10067_19" lane="4686354#2_0" startPos="14.25" endPos="27.25" name="Wilmsstr. (Berlin)" friendlyPos="true" parkingLength="14.00"/>
    <busStop id="10067_20" lane="4612696#2_0" startPos="11.49" endPos="24.49" name="U Prinzenstr. (Berlin)" friendlyPos="true" parkingLength="14.00"/>
    <busStop id="10067_21" lane="4887461#2_0" startPos="14.94" endPos="27.94" name="Prinzenstr./Ritterstr. (Berlin)" friendlyPos="true" parkingLength="14.00"/>
    <busStop id="10067_22" lane="4887461#4_0" startPos="20.19" endPos="33.19" name="Segitzdamm (Berlin)" friendlyPos="true" parkingLength="14.00"/>
    <busStop id="10067_23" lane="-16806095_0" startPos="0.22" endPos="13.22" name="U Kottbusser Tor (Berlin)" friendlyPos="true" parkingLength="14.00"/>
    <busStop id="10067_25" lane="-195344059#0_0" startPos="9.40" endPos="22.40" name="Berlin, Adalbertstr./Oranienstr." friendlyPos="true" parkingLength="14.00"/>
    <busStop id="10067_26" lane="32977013#2_0" startPos="15.55" endPos="28.55" name="Waldemarstr./Adalbertstr. (Berlin)" friendlyPos="true" parkingLength="14.00"/>
    <busStop id="10067_27" lane="195344069_0" startPos="32.28" endPos="45.28" name="Mariannenplatz (Berlin)" friendlyPos="true" parkingLength="14.00"/>
    <busStop id="10067_28" lane="53357056_0" startPos="203.84" endPos="216.84" name="Waldemarstr./Manteuffelstr. (Berlin)" friendlyPos="true" parkingLength="14.00"/>
    <busStop id="10067_29" lane="53357061_0" startPos="108.20" endPos="121.20" name="Wrangelstr. (Berlin)" friendlyPos="true" parkingLength="14.00"/>
    <busStop id="10067_30" lane="66514425#1_0" startPos="33.09" endPos="46.09" name="Manteuffelstr./Köpenicker Str. (Berlin)" friendlyPos="true" parkingLength="14.00"/>
    <busStop id="10074_3" lane="-66514425#1_0" startPos="12.67" endPos="25.67" name="Manteuffelstr./Köpenicker Str. (Berlin)" friendlyPos="true" parkingLength="14.00"/>
    <busStop id="10074_4" lane="-66514425#0_0" startPos="176.70" endPos="189.70" name="Wrangelstr. (Berlin)" friendlyPos="true" parkingLength="14.00"/>
    <busStop id="10074_5" lane="-53357056_0" startPos="12.10" endPos="25.10" name="Waldemarstr./Manteuffelstr. (Berlin)" friendlyPos="true" parkingLength="14.00"/>
    <busStop id="10074_6" lane="-195344067_0" startPos="29.00" endPos="42.00" name="Mariannenplatz (Berlin)" friendlyPos="true" parkingLength="14.00"/>
    <busStop id="10074_7" lane="-32977013#2_0" startPos="211.95" endPos="224.95" name="Waldemarstr./Adalbertstr. (Berlin)" friendlyPos="true" parkingLength="14.00"/>
    <busStop id="10074_8" lane="24579669#2_0" startPos="7.53" endPos="20.53" name="Berlin, Adalbertstr./Oranienstr." friendlyPos="true" parkingLength="14.00"/>
    <busStop id="10074_10" lane="-4887461#4_0" startPos="17.62" endPos="30.62" name="Segitzdamm (Berlin)" friendlyPos="true" parkingLength="14.00"/>
    <busStop id="10074_11" lane="-4612696#5_0" startPos="12.80" endPos="25.80" name="Prinzenstr./Ritterstr. (Berlin)" friendlyPos="true" parkingLength="14.00"/>